[VMEM] WARNING: physical memory size is smaller than virtual memory size.
WARNING: option --warmup_instructions is deprecated. Use --warmup-instructions instead.
WARNING: option --simulation_instructions is deprecated. Use --simulation-instructions instead.

*** ChampSim Multicore Out-of-Order Simulator ***
Warmup Instructions: 40000000
Simulation Instructions: 100000000
Number of CPUs: 1
Page size: 4096

Off-chip DRAM Size: 16 GiB Channels: 1 Width: 64-bit Data Rate: 2403 MT/s
Heartbeat CPU 0 instructions: 10000001 cycles: 16200753 heartbeat IPC: 0.6173 cumulative IPC: 0.6173 (Simulation time: 00 hr 03 min 30 sec)
[VMEM] WARNING: Out of physical memory, freeing ppages
Heartbeat CPU 0 instructions: 20000004 cycles: 28606551 heartbeat IPC: 0.8061 cumulative IPC: 0.6991 (Simulation time: 00 hr 06 min 27 sec)
[VMEM] WARNING: Out of physical memory, freeing ppages
Heartbeat CPU 0 instructions: 30000006 cycles: 40322314 heartbeat IPC: 0.8536 cumulative IPC: 0.744 (Simulation time: 00 hr 09 min 27 sec)
[VMEM] WARNING: Out of physical memory, freeing ppages
Warmup finished CPU 0 instructions: 40000001 cycles: 51492138 cumulative IPC: 0.7768 (Simulation time: 00 hr 12 min 31 sec)
Warmup complete CPU 0 instructions: 40000001 cycles: 51492138 cumulative IPC: 0.7768 (Simulation time: 00 hr 12 min 31 sec)
Heartbeat CPU 0 instructions: 40000008 cycles: 51492351 heartbeat IPC: 0.8953 cumulative IPC: 0.03286 (Simulation time: 00 hr 12 min 31 sec)
[VMEM] WARNING: Out of physical memory, freeing ppages
Heartbeat CPU 0 instructions: 50000008 cycles: 125274448 heartbeat IPC: 0.1355 cumulative IPC: 0.1355 (Simulation time: 00 hr 23 min 42 sec)
[VMEM] WARNING: Out of physical memory, freeing ppages
Heartbeat CPU 0 instructions: 60000011 cycles: 198170443 heartbeat IPC: 0.1372 cumulative IPC: 0.1364 (Simulation time: 00 hr 34 min 41 sec)
[VMEM] WARNING: Out of physical memory, freeing ppages
Heartbeat CPU 0 instructions: 70000011 cycles: 278907850 heartbeat IPC: 0.1239 cumulative IPC: 0.1319 (Simulation time: 00 hr 46 min 58 sec)
Heartbeat CPU 0 instructions: 80000011 cycles: 357173506 heartbeat IPC: 0.1278 cumulative IPC: 0.1309 (Simulation time: 00 hr 58 min 04 sec)
[VMEM] WARNING: Out of physical memory, freeing ppages
Heartbeat CPU 0 instructions: 90000013 cycles: 444719196 heartbeat IPC: 0.1142 cumulative IPC: 0.1272 (Simulation time: 01 hr 10 min 28 sec)
[VMEM] WARNING: Out of physical memory, freeing ppages
Heartbeat CPU 0 instructions: 100000016 cycles: 532198338 heartbeat IPC: 0.1143 cumulative IPC: 0.1248 (Simulation time: 01 hr 22 min 58 sec)
[VMEM] WARNING: Out of physical memory, freeing ppages
Heartbeat CPU 0 instructions: 110000017 cycles: 606418373 heartbeat IPC: 0.1347 cumulative IPC: 0.1261 (Simulation time: 01 hr 33 min 26 sec)
[VMEM] WARNING: Out of physical memory, freeing ppages
Heartbeat CPU 0 instructions: 120000020 cycles: 686071067 heartbeat IPC: 0.1255 cumulative IPC: 0.1261 (Simulation time: 01 hr 44 min 17 sec)
[VMEM] WARNING: Out of physical memory, freeing ppages
Heartbeat CPU 0 instructions: 130000024 cycles: 762851591 heartbeat IPC: 0.1302 cumulative IPC: 0.1265 (Simulation time: 01 hr 54 min 42 sec)
[VMEM] WARNING: Out of physical memory, freeing ppages
Simulation finished CPU 0 instructions: 100000004 cycles: 789423205 cumulative IPC: 0.1267 (Simulation time: 02 hr 05 min 13 sec)
Simulation complete CPU 0 instructions: 100000004 cycles: 789423205 cumulative IPC: 0.1267 (Simulation time: 02 hr 05 min 13 sec)

ChampSim completed all CPUs

=== Simulation ===
CPU 0 runs /home/wzz/ChampSim/traces/cassandra_phase0_core0.trace.xz

Region of Interest Statistics

CPU 0 cumulative IPC: 0.1267 instructions: 100000004 cycles: 789423205
CPU 0 Branch Prediction Accuracy: 99.97% MPKI: 0.00032 Average ROB Occupancy at Mispredict: 135.3
Branch type MPKI
BRANCH_DIRECT_JUMP: 0
BRANCH_INDIRECT: 0
BRANCH_CONDITIONAL: 0.00032
BRANCH_DIRECT_CALL: 0
BRANCH_INDIRECT_CALL: 0
BRANCH_RETURN: 0

cpu0->cpu0_STLB TOTAL        ACCESS:   26726182 HIT:   15977437 MISS:   10748745 MSHR_MERGE:       1035
cpu0->cpu0_STLB LOAD         ACCESS:   26726182 HIT:   15977437 MISS:   10748745 MSHR_MERGE:       1035
cpu0->cpu0_STLB RFO          ACCESS:          0 HIT:          0 MISS:          0 MSHR_MERGE:          0
cpu0->cpu0_STLB PREFETCH     ACCESS:          0 HIT:          0 MISS:          0 MSHR_MERGE:          0
cpu0->cpu0_STLB WRITE        ACCESS:          0 HIT:          0 MISS:          0 MSHR_MERGE:          0
cpu0->cpu0_STLB TRANSLATION  ACCESS:          0 HIT:          0 MISS:          0 MSHR_MERGE:          0
cpu0->cpu0_STLB PREFETCH REQUESTED:          0 ISSUED:          0 USEFUL:          0 USELESS:          0
cpu0->cpu0_STLB AVERAGE MISS LATENCY: 364.6 cycles
cpu0->cpu0_L2C TOTAL        ACCESS:   64064634 HIT:   25850532 MISS:   38214102 MSHR_MERGE:       3591
cpu0->cpu0_L2C LOAD         ACCESS:   20859963 HIT:    8367560 MISS:   12492403 MSHR_MERGE:       3591
cpu0->cpu0_L2C RFO          ACCESS:    3013110 HIT:    2715710 MISS:     297400 MSHR_MERGE:          0
cpu0->cpu0_L2C PREFETCH     ACCESS:          0 HIT:          0 MISS:          0 MSHR_MERGE:          0
cpu0->cpu0_L2C WRITE        ACCESS:    3436386 HIT:    3435996 MISS:        390 MSHR_MERGE:          0
cpu0->cpu0_L2C TRANSLATION  ACCESS:   36755175 HIT:   11331266 MISS:   25423909 MSHR_MERGE:          0
cpu0->cpu0_L2C PREFETCH REQUESTED:          0 ISSUED:          0 USEFUL:          0 USELESS:          0
cpu0->cpu0_L2C AVERAGE MISS LATENCY: 130.1 cycles
cpu0->cpu0_L1I TOTAL        ACCESS:   64829034 HIT:   64341252 MISS:     487782 MSHR_MERGE:     290356
cpu0->cpu0_L1I LOAD         ACCESS:   64829034 HIT:   64341252 MISS:     487782 MSHR_MERGE:     290356
cpu0->cpu0_L1I RFO          ACCESS:          0 HIT:          0 MISS:          0 MSHR_MERGE:          0
cpu0->cpu0_L1I PREFETCH     ACCESS:          0 HIT:          0 MISS:          0 MSHR_MERGE:          0
cpu0->cpu0_L1I WRITE        ACCESS:          0 HIT:          0 MISS:          0 MSHR_MERGE:          0
cpu0->cpu0_L1I TRANSLATION  ACCESS:          0 HIT:          0 MISS:          0 MSHR_MERGE:          0
cpu0->cpu0_L1I PREFETCH REQUESTED:          0 ISSUED:          0 USEFUL:          0 USELESS:          0
cpu0->cpu0_L1I AVERAGE MISS LATENCY: 111 cycles
cpu0->cpu0_L1D TOTAL        ACCESS:  122799105 HIT:   54046357 MISS:   68752748 MSHR_MERGE:    8235865
cpu0->cpu0_L1D LOAD         ACCESS:   36928524 HIT:   14825074 MISS:   22103450 MSHR_MERGE:    1440231
cpu0->cpu0_L1D RFO          ACCESS:          0 HIT:          0 MISS:          0 MSHR_MERGE:          0
cpu0->cpu0_L1D PREFETCH     ACCESS:          0 HIT:          0 MISS:          0 MSHR_MERGE:          0
cpu0->cpu0_L1D WRITE        ACCESS:   40446328 HIT:   32185016 MISS:    8261312 MSHR_MERGE:    5162822
cpu0->cpu0_L1D TRANSLATION  ACCESS:   45424253 HIT:    7036267 MISS:   38387986 MSHR_MERGE:    1632812
cpu0->cpu0_L1D PREFETCH REQUESTED:          0 ISSUED:          0 USEFUL:          0 USELESS:          0
cpu0->cpu0_L1D AVERAGE MISS LATENCY: 91.5 cycles
cpu0->cpu0_ITLB TOTAL        ACCESS:   58387421 HIT:   58280509 MISS:     106912 MSHR_MERGE:      51762
cpu0->cpu0_ITLB LOAD         ACCESS:   58387421 HIT:   58280509 MISS:     106912 MSHR_MERGE:      51762
cpu0->cpu0_ITLB RFO          ACCESS:          0 HIT:          0 MISS:          0 MSHR_MERGE:          0
cpu0->cpu0_ITLB PREFETCH     ACCESS:          0 HIT:          0 MISS:          0 MSHR_MERGE:          0
cpu0->cpu0_ITLB WRITE        ACCESS:          0 HIT:          0 MISS:          0 MSHR_MERGE:          0
cpu0->cpu0_ITLB TRANSLATION  ACCESS:          0 HIT:          0 MISS:          0 MSHR_MERGE:          0
cpu0->cpu0_ITLB PREFETCH REQUESTED:          0 ISSUED:          0 USEFUL:          0 USELESS:          0
cpu0->cpu0_ITLB AVERAGE MISS LATENCY: 97.25 cycles
cpu0->cpu0_DTLB TOTAL        ACCESS:   74756065 HIT:   44357194 MISS:   30398871 MSHR_MERGE:    3727837
cpu0->cpu0_DTLB LOAD         ACCESS:   74756065 HIT:   44357194 MISS:   30398871 MSHR_MERGE:    3727837
cpu0->cpu0_DTLB RFO          ACCESS:          0 HIT:          0 MISS:          0 MSHR_MERGE:          0
cpu0->cpu0_DTLB PREFETCH     ACCESS:          0 HIT:          0 MISS:          0 MSHR_MERGE:          0
cpu0->cpu0_DTLB WRITE        ACCESS:          0 HIT:          0 MISS:          0 MSHR_MERGE:          0
cpu0->cpu0_DTLB TRANSLATION  ACCESS:          0 HIT:          0 MISS:          0 MSHR_MERGE:          0
cpu0->cpu0_DTLB PREFETCH REQUESTED:          0 ISSUED:          0 USEFUL:          0 USELESS:          0
cpu0->cpu0_DTLB AVERAGE MISS LATENCY: 152.2 cycles
cpu0->LLC TOTAL        ACCESS:   38747765 HIT:   19224891 MISS:   19522874 MSHR_MERGE:          0
cpu0->LLC LOAD         ACCESS:   12488799 HIT:    5463609 MISS:    7025190 MSHR_MERGE:          0
cpu0->LLC RFO          ACCESS:     297335 HIT:      83510 MISS:     213825 MSHR_MERGE:          0
cpu0->LLC PREFETCH     ACCESS:          0 HIT:          0 MISS:          0 MSHR_MERGE:          0
cpu0->LLC WRITE        ACCESS:     537722 HIT:     527610 MISS:      10112 MSHR_MERGE:          0
cpu0->LLC TRANSLATION  ACCESS:   25423909 HIT:   13150162 MISS:   12273747 MSHR_MERGE:          0
cpu0->LLC PREFETCH REQUESTED:          0 ISSUED:          0 USEFUL:          0 USELESS:          0
cpu0->LLC AVERAGE MISS LATENCY: 206.7 cycles

DRAM Statistics

Channel 0 RQ ROW_BUFFER_HIT:      13434
  ROW_BUFFER_MISS:   19461573
  AVG DBUS CONGESTED CYCLE: 9.989
Channel 0 WQ ROW_BUFFER_HIT:      72263
  ROW_BUFFER_MISS:     319784
  FULL:          0
Channel 0 REFRESHES ISSUED:      65775
