*************************************************
   ChampSim Multicore Out-of-Order Simulator
   Last compiled: Feb  6 2025 20:33:19
*************************************************
parsing config file: /home/wzz/Pythia/config/ppf_dev.ini
Failed to load /home/wzz/Pythia/config/ppf_dev.ini
