*************************************************
   ChampSim Multicore Out-of-Order Simulator
   Last compiled: Feb  6 2025 20:33:19
*************************************************
parsing config file: /home/wzz/Pythia/config/pythia.ini

trace_0 /home/wzz/Pythia/traces/605.mcf_s-472B.champsimtrace.xz
adding L2C_PREFETCHER: Scooby
Initialize SHIP state
warmup_instructions 40000000
simulation_instructions 100000000
champsim_seed 223
measure_ipc 0
measure_ipc_epoch 1000
measure_dram_bw 1
measure_dram_bw_epoch 256
measure_cache_acc 1
measure_cache_acc_epoch 1024
l1d_perfect 0
l2c_perfect 0
llc_perfect 0
l1d_semi_perfect 0
l2c_semi_perfect 0
llc_semi_perfect 0
semi_perfect_cache_page_buffer_size 64

num_cpus 1
cpu_freq 4000
dram_io_freq 2400
page_size 4096
block_size 64
max_read_per_cycle 8
max_fill_per_cycle 1
dram_channels 1
log2_dram_channels 0
dram_ranks 1
dram_banks 8
dram_rows 65536
dram_columns 128
dram_row_size 8
dram_size 4096
dram_pages 1048576

fetch_width 6
decode_width 6
exec_width 4
lq_width 2
sq_width 2
retire_width 4
scheduler_size 128
branch_mispredict_penalty 20
rob_size 256
lq_size 72
sq_size 56
num_instr_destinations_sparc 4
num_instr_destinations 2
num_instr_sources 4

itlb_set 16
itlb_way 8
itlb_rq_size 16
itlb_wq_size 16
itlb_pq_size 0
itlb_mshr_size 8
itlb_latency 1

dtlb_set 16
dtlb_way 4
dtlb_rq_size 16
dtlb_wq_size 16
dtlb_pq_size 0
dtlb_mshr_size 8
dtlb_latency 1

stlb_set 128
stlb_way 12
stlb_rq_size 32
stlb_wq_size 32
stlb_pq_size 0
stlb_mshr_size 16
stlb_latency 8

l1i_size 32
l1i_set 64
l1i_way 8
l1i_rq_size 64
l1i_wq_size 64
l1i_pq_size 8
l1i_mshr_size 8
l1i_latency 1

l1d_size 32
l1d_set 64
l1d_way 8
l1d_rq_size 64
l1d_wq_size 64
l1d_pq_size 8
l1d_mshr_size 16
l1d_latency 4

l2c_size 256
l2c_set 512
l2c_way 8
l2c_rq_size 32
l2c_wq_size 32
l2c_pq_size 32
l2c_mshr_size 32
l2c_latency 10

llc_size 2048
llc_set 2048
llc_way 16
llc_rq_size 32
llc_wq_size 32
llc_pq_size 32
llc_mshr_size 64
llc_latency 20

dram_channel_width 8
dram_wq_size 64
dram_rq_size 64
tRP 15
tRCD 15
tCAS 12.5
dram_dbus_turn_around_time 30
dram_write_high_wm 56
dram_write_low_wm 48
min_dram_writes_per_switch 16
dram_mtps 2400
dram_dbus_return_time 13

scooby_alpha 0.0065088
scooby_gamma 0.556301
scooby_epsilon 0.00182284
scooby_state_num_bits 10
scooby_max_states 1024
scooby_seed 200
scooby_policy EGreedy
scooby_learning_type SARSA
scooby_actions 1,3,4,5,10,11,12,22,23,30,32,-1,-3,-6,0,
scooby_max_actions 15
scooby_pt_size 256
scooby_st_size 64
scooby_max_pcs 5
scooby_max_offsets 5
scooby_max_deltas 5
scooby_reward_none -4
scooby_reward_incorrect -8
scooby_reward_correct_untimely 12
scooby_reward_correct_timely 20
scooby_brain_zero_init 0
scooby_enable_reward_all 0
scooby_enable_track_multiple 0
scooby_enable_reward_out_of_bounds 1
scooby_reward_out_of_bounds -12
scooby_state_type 1
scooby_state_hash_type 11
scooby_access_debug 0
scooby_print_access_debug 0
scooby_print_access_debug_pc deadbeef
scooby_print_access_debug_pc_count 0
scooby_print_trace 0
scooby_enable_state_action_stats 1
scooby_enable_reward_tracker_hit 0
scooby_reward_tracker_hit -2
scooby_enable_featurewise_engine 1
scooby_pref_degree 1
scooby_enable_dyn_degree 1
scooby_max_to_avg_q_thresholds 0.5,1,2,
scooby_dyn_degrees 1,2,4,4,
scooby_multi_deg_select_type 2
scooby_last_pref_offset_conf_thresholds 1,3,8,
scooby_dyn_degrees_type2 1,2,4,6,
scooby_action_tracker_size 2
scooby_high_bw_thresh 4
scooby_enable_hbw_reward 1
scooby_reward_hbw_correct_timely 20
scooby_reward_hbw_correct_untimely 12
scooby_reward_hbw_incorrect -14
scooby_reward_hbw_none -2
scooby_reward_hbw_out_of_bounds -12
scooby_reward_hbw_tracker_hit -2
scooby_last_pref_offset_conf_thresholds_hbw 1,3,8,
scooby_dyn_degrees_type2_hbw 1,2,4,6,

le_enable_trace 0
le_trace_interval 0
le_trace_file_name 
le_trace_state 0
le_enable_score_plot 0
le_plot_file_name 
le_plot_actions 
le_enable_action_trace 0
le_action_trace_interval 0
le_action_trace_name 
le_enable_action_plot 0

le_featurewise_active_features PC, PC_Delta
le_featurewise_num_tilings 3,3,
le_featurewise_num_tiles 128,128,
le_featurewise_hash_types 2,2,
le_featurewise_enable_tiling_offset 1,1,
le_featurewise_max_q_thresh 0.5
le_featurewise_enable_action_fallback 1
le_featurewise_feature_weights 1,1,
le_featurewise_enable_dynamic_weight 0
le_featurewise_weight_gradient 0.001
le_featurewise_disable_adjust_weight_all_features_align 1
le_featurewise_selective_update 0
le_featurewise_pooling_type 2
le_featurewise_enable_dyn_action_fallback 1
le_featurewise_bw_acc_check_level 1
le_featurewise_acc_thresh 2
le_featurewise_enable_trace 0
le_featurewise_trace_feature_type 0
le_featurewise_trace_feature 
le_featurewise_trace_interval 0
le_featurewise_trace_record_count 0
le_featurewise_trace_file_name 
le_featurewise_enable_score_plot 0
le_featurewise_plot_actions 
le_featurewise_plot_file_name 


Heartbeat CPU  0 instructions:    1000000 cycles:     557922 heartbeat IPC: 1.79237 cumulative IPC: 1.79237 (Simulation time: 0 hr 0 min 5 sec) 
Heartbeat CPU  0 instructions:    2000003 cycles:    1127665 heartbeat IPC: 1.75518 cumulative IPC: 1.77358 (Simulation time: 0 hr 0 min 12 sec) 
Heartbeat CPU  0 instructions:    3000001 cycles:    1682657 heartbeat IPC: 1.80182 cumulative IPC: 1.78290 (Simulation time: 0 hr 0 min 17 sec) 
Heartbeat CPU  0 instructions:    4000000 cycles:    2256754 heartbeat IPC: 1.74186 cumulative IPC: 1.77246 (Simulation time: 0 hr 0 min 22 sec) 
Heartbeat CPU  0 instructions:    5000002 cycles:    2812026 heartbeat IPC: 1.80092 cumulative IPC: 1.77808 (Simulation time: 0 hr 0 min 29 sec) 
Heartbeat CPU  0 instructions:    6000001 cycles:    3366615 heartbeat IPC: 1.80314 cumulative IPC: 1.78221 (Simulation time: 0 hr 0 min 34 sec) 
Heartbeat CPU  0 instructions:    7000001 cycles:    3933460 heartbeat IPC: 1.76415 cumulative IPC: 1.77960 (Simulation time: 0 hr 0 min 40 sec) 
Heartbeat CPU  0 instructions:    8000000 cycles:    4494873 heartbeat IPC: 1.78122 cumulative IPC: 1.77981 (Simulation time: 0 hr 0 min 46 sec) 
Heartbeat CPU  0 instructions:    9000002 cycles:    5071191 heartbeat IPC: 1.73516 cumulative IPC: 1.77473 (Simulation time: 0 hr 0 min 52 sec) 
Heartbeat CPU  0 instructions:   10000000 cycles:    5631169 heartbeat IPC: 1.78578 cumulative IPC: 1.77583 (Simulation time: 0 hr 0 min 58 sec) 
Heartbeat CPU  0 instructions:   11000003 cycles:    6209478 heartbeat IPC: 1.72918 cumulative IPC: 1.77149 (Simulation time: 0 hr 1 min 3 sec) 
Heartbeat CPU  0 instructions:   12000000 cycles:    6772770 heartbeat IPC: 1.77527 cumulative IPC: 1.77180 (Simulation time: 0 hr 1 min 12 sec) 
Heartbeat CPU  0 instructions:   13000000 cycles:    7346290 heartbeat IPC: 1.74362 cumulative IPC: 1.76960 (Simulation time: 0 hr 1 min 17 sec) 
Heartbeat CPU  0 instructions:   14000001 cycles:    7930963 heartbeat IPC: 1.71036 cumulative IPC: 1.76523 (Simulation time: 0 hr 1 min 24 sec) 
Heartbeat CPU  0 instructions:   15000003 cycles:    8501875 heartbeat IPC: 1.75159 cumulative IPC: 1.76432 (Simulation time: 0 hr 1 min 31 sec) 
Heartbeat CPU  0 instructions:   16000000 cycles:    9062472 heartbeat IPC: 1.78381 cumulative IPC: 1.76552 (Simulation time: 0 hr 1 min 37 sec) 
Heartbeat CPU  0 instructions:   17000000 cycles:    9651192 heartbeat IPC: 1.69860 cumulative IPC: 1.76144 (Simulation time: 0 hr 1 min 44 sec) 
Heartbeat CPU  0 instructions:   18000002 cycles:   10235939 heartbeat IPC: 1.71014 cumulative IPC: 1.75851 (Simulation time: 0 hr 1 min 53 sec) 
Heartbeat CPU  0 instructions:   19000001 cycles:   10800241 heartbeat IPC: 1.77210 cumulative IPC: 1.75922 (Simulation time: 0 hr 2 min 2 sec) 
Heartbeat CPU  0 instructions:   20000000 cycles:   11349176 heartbeat IPC: 1.82171 cumulative IPC: 1.76224 (Simulation time: 0 hr 2 min 7 sec) 
Heartbeat CPU  0 instructions:   21000000 cycles:   11905858 heartbeat IPC: 1.79636 cumulative IPC: 1.76384 (Simulation time: 0 hr 2 min 12 sec) 
Heartbeat CPU  0 instructions:   22000003 cycles:   12484311 heartbeat IPC: 1.72875 cumulative IPC: 1.76221 (Simulation time: 0 hr 2 min 20 sec) 
Heartbeat CPU  0 instructions:   23000003 cycles:   13055535 heartbeat IPC: 1.75063 cumulative IPC: 1.76171 (Simulation time: 0 hr 2 min 29 sec) 
Heartbeat CPU  0 instructions:   24000000 cycles:   13630350 heartbeat IPC: 1.73968 cumulative IPC: 1.76078 (Simulation time: 0 hr 2 min 38 sec) 
Heartbeat CPU  0 instructions:   25000000 cycles:   14212016 heartbeat IPC: 1.71920 cumulative IPC: 1.75907 (Simulation time: 0 hr 2 min 47 sec) 
Heartbeat CPU  0 instructions:   26000001 cycles:   14783348 heartbeat IPC: 1.75030 cumulative IPC: 1.75874 (Simulation time: 0 hr 2 min 56 sec) 
Heartbeat CPU  0 instructions:   27000002 cycles:   15368317 heartbeat IPC: 1.70949 cumulative IPC: 1.75686 (Simulation time: 0 hr 3 min 5 sec) 
Heartbeat CPU  0 instructions:   28000000 cycles:   15923558 heartbeat IPC: 1.80102 cumulative IPC: 1.75840 (Simulation time: 0 hr 3 min 10 sec) 
Heartbeat CPU  0 instructions:   29000001 cycles:   16468418 heartbeat IPC: 1.83534 cumulative IPC: 1.76095 (Simulation time: 0 hr 3 min 16 sec) 
Heartbeat CPU  0 instructions:   30000002 cycles:   17031849 heartbeat IPC: 1.77484 cumulative IPC: 1.76141 (Simulation time: 0 hr 3 min 22 sec) 
Heartbeat CPU  0 instructions:   31000000 cycles:   17592326 heartbeat IPC: 1.78419 cumulative IPC: 1.76213 (Simulation time: 0 hr 3 min 27 sec) 
Heartbeat CPU  0 instructions:   32000000 cycles:   18144309 heartbeat IPC: 1.81165 cumulative IPC: 1.76364 (Simulation time: 0 hr 3 min 33 sec) 
Heartbeat CPU  0 instructions:   33000000 cycles:   18714418 heartbeat IPC: 1.75405 cumulative IPC: 1.76335 (Simulation time: 0 hr 3 min 39 sec) 
Heartbeat CPU  0 instructions:   34000000 cycles:   19269376 heartbeat IPC: 1.80194 cumulative IPC: 1.76446 (Simulation time: 0 hr 3 min 45 sec) 
Heartbeat CPU  0 instructions:   35000000 cycles:   19825335 heartbeat IPC: 1.79869 cumulative IPC: 1.76542 (Simulation time: 0 hr 3 min 50 sec) 
Heartbeat CPU  0 instructions:   36000000 cycles:   20395745 heartbeat IPC: 1.75312 cumulative IPC: 1.76507 (Simulation time: 0 hr 3 min 57 sec) 
Heartbeat CPU  0 instructions:   37000001 cycles:   20949471 heartbeat IPC: 1.80595 cumulative IPC: 1.76615 (Simulation time: 0 hr 4 min 2 sec) 
Heartbeat CPU  0 instructions:   38000000 cycles:   21517085 heartbeat IPC: 1.76176 cumulative IPC: 1.76604 (Simulation time: 0 hr 4 min 8 sec) 
Heartbeat CPU  0 instructions:   39000003 cycles:   22088683 heartbeat IPC: 1.74949 cumulative IPC: 1.76561 (Simulation time: 0 hr 4 min 16 sec) 
Heartbeat CPU  0 instructions:   40000000 cycles:   22639647 heartbeat IPC: 1.81500 cumulative IPC: 1.76681 (Simulation time: 0 hr 4 min 21 sec) 

Warmup complete CPU  0 instructions:   40000002 cycles:   22639648 (Simulation time: 0 hr 4 min 21 sec) 

Heartbeat CPU  0 instructions:   41000001 cycles:   24958678 heartbeat IPC: 0.43122 cumulative IPC: 0.43121 (Simulation time: 0 hr 4 min 28 sec) 
Heartbeat CPU  0 instructions:   42000002 cycles:   27796880 heartbeat IPC: 0.35234 cumulative IPC: 0.38780 (Simulation time: 0 hr 4 min 38 sec) 
Heartbeat CPU  0 instructions:   43000003 cycles:   29541853 heartbeat IPC: 0.57308 cumulative IPC: 0.43464 (Simulation time: 0 hr 4 min 45 sec) 
Heartbeat CPU  0 instructions:   44000000 cycles:   32387988 heartbeat IPC: 0.35135 cumulative IPC: 0.41033 (Simulation time: 0 hr 4 min 55 sec) 
Heartbeat CPU  0 instructions:   45000001 cycles:   34104870 heartbeat IPC: 0.58245 cumulative IPC: 0.43610 (Simulation time: 0 hr 5 min 1 sec) 
Heartbeat CPU  0 instructions:   46000001 cycles:   36938251 heartbeat IPC: 0.35294 cumulative IPC: 0.41962 (Simulation time: 0 hr 5 min 11 sec) 
Heartbeat CPU  0 instructions:   47000001 cycles:   39251789 heartbeat IPC: 0.43224 cumulative IPC: 0.42138 (Simulation time: 0 hr 5 min 18 sec) 
Heartbeat CPU  0 instructions:   48000000 cycles:   41001917 heartbeat IPC: 0.57139 cumulative IPC: 0.43568 (Simulation time: 0 hr 5 min 25 sec) 
Heartbeat CPU  0 instructions:   49000000 cycles:   43847252 heartbeat IPC: 0.35145 cumulative IPC: 0.42438 (Simulation time: 0 hr 5 min 35 sec) 
Heartbeat CPU  0 instructions:   50000001 cycles:   48161710 heartbeat IPC: 0.23178 cumulative IPC: 0.39182 (Simulation time: 0 hr 5 min 50 sec) 
Heartbeat CPU  0 instructions:   51000001 cycles:   50050207 heartbeat IPC: 0.52952 cumulative IPC: 0.40131 (Simulation time: 0 hr 5 min 57 sec) 
Heartbeat CPU  0 instructions:   52000000 cycles:   51797375 heartbeat IPC: 0.57235 cumulative IPC: 0.41155 (Simulation time: 0 hr 6 min 3 sec) 
Heartbeat CPU  0 instructions:   53000003 cycles:   54612730 heartbeat IPC: 0.35520 cumulative IPC: 0.40659 (Simulation time: 0 hr 6 min 13 sec) 
Heartbeat CPU  0 instructions:   54000001 cycles:   56315453 heartbeat IPC: 0.58729 cumulative IPC: 0.41573 (Simulation time: 0 hr 6 min 20 sec) 
Heartbeat CPU  0 instructions:   55000003 cycles:   58118241 heartbeat IPC: 0.55470 cumulative IPC: 0.42279 (Simulation time: 0 hr 6 min 26 sec) 
Heartbeat CPU  0 instructions:   56000000 cycles:   61914327 heartbeat IPC: 0.26343 cumulative IPC: 0.40739 (Simulation time: 0 hr 6 min 39 sec) 
Heartbeat CPU  0 instructions:   57000003 cycles:   65495393 heartbeat IPC: 0.27925 cumulative IPC: 0.39668 (Simulation time: 0 hr 6 min 51 sec) 
Heartbeat CPU  0 instructions:   58000000 cycles:   67345557 heartbeat IPC: 0.54049 cumulative IPC: 0.40263 (Simulation time: 0 hr 6 min 58 sec) 
Heartbeat CPU  0 instructions:   59000003 cycles:   70663471 heartbeat IPC: 0.30140 cumulative IPC: 0.39564 (Simulation time: 0 hr 7 min 9 sec) 
Heartbeat CPU  0 instructions:   60000000 cycles:   74134307 heartbeat IPC: 0.28811 cumulative IPC: 0.38839 (Simulation time: 0 hr 7 min 20 sec) 
Heartbeat CPU  0 instructions:   61000001 cycles:   76096773 heartbeat IPC: 0.50956 cumulative IPC: 0.39284 (Simulation time: 0 hr 7 min 27 sec) 
Heartbeat CPU  0 instructions:   62000001 cycles:   79076740 heartbeat IPC: 0.33557 cumulative IPC: 0.38981 (Simulation time: 0 hr 7 min 37 sec) 
Heartbeat CPU  0 instructions:   63000002 cycles:   80983192 heartbeat IPC: 0.52454 cumulative IPC: 0.39422 (Simulation time: 0 hr 7 min 43 sec) 
Heartbeat CPU  0 instructions:   64000000 cycles:   84003719 heartbeat IPC: 0.33107 cumulative IPC: 0.39111 (Simulation time: 0 hr 7 min 53 sec) 
Heartbeat CPU  0 instructions:   65000000 cycles:   86001870 heartbeat IPC: 0.50046 cumulative IPC: 0.39456 (Simulation time: 0 hr 8 min 0 sec) 
Heartbeat CPU  0 instructions:   66000001 cycles:   88921695 heartbeat IPC: 0.34249 cumulative IPC: 0.39226 (Simulation time: 0 hr 8 min 10 sec) 
Heartbeat CPU  0 instructions:   67000000 cycles:   90736109 heartbeat IPC: 0.55114 cumulative IPC: 0.39650 (Simulation time: 0 hr 8 min 16 sec) 
Heartbeat CPU  0 instructions:   68000000 cycles:   94378399 heartbeat IPC: 0.27455 cumulative IPC: 0.39031 (Simulation time: 0 hr 8 min 29 sec) 
Heartbeat CPU  0 instructions:   69000002 cycles:   96770099 heartbeat IPC: 0.41811 cumulative IPC: 0.39120 (Simulation time: 0 hr 8 min 37 sec) 
Heartbeat CPU  0 instructions:   70000001 cycles:   98615187 heartbeat IPC: 0.54198 cumulative IPC: 0.39486 (Simulation time: 0 hr 8 min 44 sec) 
Heartbeat CPU  0 instructions:   71000000 cycles:  101186938 heartbeat IPC: 0.38884 cumulative IPC: 0.39467 (Simulation time: 0 hr 8 min 52 sec) 
Heartbeat CPU  0 instructions:   72000000 cycles:  103617535 heartbeat IPC: 0.41142 cumulative IPC: 0.39517 (Simulation time: 0 hr 9 min 1 sec) 
Heartbeat CPU  0 instructions:   73000003 cycles:  106107306 heartbeat IPC: 0.40164 cumulative IPC: 0.39536 (Simulation time: 0 hr 9 min 9 sec) 
Heartbeat CPU  0 instructions:   74000002 cycles:  110534362 heartbeat IPC: 0.22588 cumulative IPC: 0.38683 (Simulation time: 0 hr 9 min 23 sec) 
Heartbeat CPU  0 instructions:   75000002 cycles:  113212463 heartbeat IPC: 0.37340 cumulative IPC: 0.38643 (Simulation time: 0 hr 9 min 32 sec) 
Heartbeat CPU  0 instructions:   76000000 cycles:  115688140 heartbeat IPC: 0.40393 cumulative IPC: 0.38690 (Simulation time: 0 hr 9 min 41 sec) 
Heartbeat CPU  0 instructions:   77000002 cycles:  119623079 heartbeat IPC: 0.25413 cumulative IPC: 0.38151 (Simulation time: 0 hr 9 min 54 sec) 
Heartbeat CPU  0 instructions:   78000002 cycles:  121484323 heartbeat IPC: 0.53728 cumulative IPC: 0.38444 (Simulation time: 0 hr 10 min 0 sec) 
Heartbeat CPU  0 instructions:   79000003 cycles:  124860579 heartbeat IPC: 0.29619 cumulative IPC: 0.38153 (Simulation time: 0 hr 10 min 11 sec) 
Heartbeat CPU  0 instructions:   80000000 cycles:  129139675 heartbeat IPC: 0.23369 cumulative IPC: 0.37559 (Simulation time: 0 hr 10 min 25 sec) 
Heartbeat CPU  0 instructions:   81000000 cycles:  130889395 heartbeat IPC: 0.57152 cumulative IPC: 0.37875 (Simulation time: 0 hr 10 min 32 sec) 
Heartbeat CPU  0 instructions:   82000003 cycles:  132608488 heartbeat IPC: 0.58170 cumulative IPC: 0.38193 (Simulation time: 0 hr 10 min 38 sec) 
Heartbeat CPU  0 instructions:   83000001 cycles:  136177312 heartbeat IPC: 0.28020 cumulative IPC: 0.37873 (Simulation time: 0 hr 10 min 51 sec) 
Heartbeat CPU  0 instructions:   84000000 cycles:  138203157 heartbeat IPC: 0.49362 cumulative IPC: 0.38074 (Simulation time: 0 hr 10 min 59 sec) 
Heartbeat CPU  0 instructions:   85000000 cycles:  140691664 heartbeat IPC: 0.40185 cumulative IPC: 0.38119 (Simulation time: 0 hr 11 min 7 sec) 
Heartbeat CPU  0 instructions:   86000002 cycles:  142912738 heartbeat IPC: 0.45023 cumulative IPC: 0.38246 (Simulation time: 0 hr 11 min 15 sec) 
Heartbeat CPU  0 instructions:   87000000 cycles:  145282766 heartbeat IPC: 0.42194 cumulative IPC: 0.38323 (Simulation time: 0 hr 11 min 23 sec) 
Heartbeat CPU  0 instructions:   88000000 cycles:  149368411 heartbeat IPC: 0.24476 cumulative IPC: 0.37876 (Simulation time: 0 hr 11 min 36 sec) 
Heartbeat CPU  0 instructions:   89000000 cycles:  151406246 heartbeat IPC: 0.49072 cumulative IPC: 0.38053 (Simulation time: 0 hr 11 min 44 sec) 
Heartbeat CPU  0 instructions:   90000000 cycles:  153234525 heartbeat IPC: 0.54696 cumulative IPC: 0.38286 (Simulation time: 0 hr 11 min 50 sec) 
Heartbeat CPU  0 instructions:   91000001 cycles:  155974554 heartbeat IPC: 0.36496 cumulative IPC: 0.38250 (Simulation time: 0 hr 12 min 0 sec) 
Heartbeat CPU  0 instructions:   92000000 cycles:  157768727 heartbeat IPC: 0.55736 cumulative IPC: 0.38482 (Simulation time: 0 hr 12 min 7 sec) 
Heartbeat CPU  0 instructions:   93000003 cycles:  161408876 heartbeat IPC: 0.27471 cumulative IPC: 0.38193 (Simulation time: 0 hr 12 min 19 sec) 
Heartbeat CPU  0 instructions:   94000000 cycles:  165220247 heartbeat IPC: 0.26237 cumulative IPC: 0.37873 (Simulation time: 0 hr 12 min 32 sec) 
Heartbeat CPU  0 instructions:   95000000 cycles:  167078985 heartbeat IPC: 0.53800 cumulative IPC: 0.38078 (Simulation time: 0 hr 12 min 38 sec) 
Heartbeat CPU  0 instructions:   96000000 cycles:  170512971 heartbeat IPC: 0.29121 cumulative IPC: 0.37870 (Simulation time: 0 hr 12 min 50 sec) 
Heartbeat CPU  0 instructions:   97000000 cycles:  174701830 heartbeat IPC: 0.23873 cumulative IPC: 0.37485 (Simulation time: 0 hr 13 min 3 sec) 
Heartbeat CPU  0 instructions:   98000002 cycles:  176750099 heartbeat IPC: 0.48822 cumulative IPC: 0.37635 (Simulation time: 0 hr 13 min 11 sec) 
Heartbeat CPU  0 instructions:   99000000 cycles:  178854974 heartbeat IPC: 0.47509 cumulative IPC: 0.37768 (Simulation time: 0 hr 13 min 18 sec) 
Heartbeat CPU  0 instructions:  100000000 cycles:  181655746 heartbeat IPC: 0.35704 cumulative IPC: 0.37732 (Simulation time: 0 hr 13 min 28 sec) 
Heartbeat CPU  0 instructions:  101000002 cycles:  184005485 heartbeat IPC: 0.42558 cumulative IPC: 0.37802 (Simulation time: 0 hr 13 min 35 sec) 
Heartbeat CPU  0 instructions:  102000000 cycles:  186065034 heartbeat IPC: 0.48554 cumulative IPC: 0.37938 (Simulation time: 0 hr 13 min 42 sec) 
Heartbeat CPU  0 instructions:  103000003 cycles:  189022444 heartbeat IPC: 0.33813 cumulative IPC: 0.37864 (Simulation time: 0 hr 13 min 52 sec) 
Heartbeat CPU  0 instructions:  104000000 cycles:  190905551 heartbeat IPC: 0.53104 cumulative IPC: 0.38035 (Simulation time: 0 hr 13 min 59 sec) 
Heartbeat CPU  0 instructions:  105000000 cycles:  193803703 heartbeat IPC: 0.34505 cumulative IPC: 0.37975 (Simulation time: 0 hr 14 min 9 sec) 
Heartbeat CPU  0 instructions:  106000000 cycles:  195594314 heartbeat IPC: 0.55847 cumulative IPC: 0.38160 (Simulation time: 0 hr 14 min 16 sec) 
Heartbeat CPU  0 instructions:  107000002 cycles:  197305386 heartbeat IPC: 0.58443 cumulative IPC: 0.38359 (Simulation time: 0 hr 14 min 22 sec) 
Heartbeat CPU  0 instructions:  108000000 cycles:  200028784 heartbeat IPC: 0.36719 cumulative IPC: 0.38334 (Simulation time: 0 hr 14 min 32 sec) 
Heartbeat CPU  0 instructions:  109000002 cycles:  202977031 heartbeat IPC: 0.33919 cumulative IPC: 0.38262 (Simulation time: 0 hr 14 min 42 sec) 
Heartbeat CPU  0 instructions:  110000000 cycles:  205039872 heartbeat IPC: 0.48477 cumulative IPC: 0.38377 (Simulation time: 0 hr 14 min 49 sec) 
Heartbeat CPU  0 instructions:  111000002 cycles:  208661312 heartbeat IPC: 0.27613 cumulative IPC: 0.38168 (Simulation time: 0 hr 15 min 2 sec) 
Heartbeat CPU  0 instructions:  112000000 cycles:  211229165 heartbeat IPC: 0.38943 cumulative IPC: 0.38178 (Simulation time: 0 hr 15 min 10 sec) 
Heartbeat CPU  0 instructions:  113000001 cycles:  213082161 heartbeat IPC: 0.53967 cumulative IPC: 0.38332 (Simulation time: 0 hr 15 min 17 sec) 
Heartbeat CPU  0 instructions:  114000002 cycles:  215951161 heartbeat IPC: 0.34855 cumulative IPC: 0.38280 (Simulation time: 0 hr 15 min 27 sec) 
Heartbeat CPU  0 instructions:  115000000 cycles:  217804705 heartbeat IPC: 0.53951 cumulative IPC: 0.38429 (Simulation time: 0 hr 15 min 34 sec) 
Heartbeat CPU  0 instructions:  116000000 cycles:  221156406 heartbeat IPC: 0.29836 cumulative IPC: 0.38284 (Simulation time: 0 hr 15 min 44 sec) 
Heartbeat CPU  0 instructions:  117000002 cycles:  223003101 heartbeat IPC: 0.54151 cumulative IPC: 0.38430 (Simulation time: 0 hr 15 min 51 sec) 
Heartbeat CPU  0 instructions:  118000001 cycles:  226133505 heartbeat IPC: 0.31945 cumulative IPC: 0.38330 (Simulation time: 0 hr 16 min 2 sec) 
Heartbeat CPU  0 instructions:  119000003 cycles:  229778437 heartbeat IPC: 0.27435 cumulative IPC: 0.38139 (Simulation time: 0 hr 16 min 13 sec) 
Heartbeat CPU  0 instructions:  120000000 cycles:  231760691 heartbeat IPC: 0.50447 cumulative IPC: 0.38255 (Simulation time: 0 hr 16 min 20 sec) 
Heartbeat CPU  0 instructions:  121000000 cycles:  233864960 heartbeat IPC: 0.47522 cumulative IPC: 0.38348 (Simulation time: 0 hr 16 min 28 sec) 
Heartbeat CPU  0 instructions:  122000000 cycles:  237565748 heartbeat IPC: 0.27021 cumulative IPC: 0.38153 (Simulation time: 0 hr 16 min 41 sec) 
Heartbeat CPU  0 instructions:  123000000 cycles:  239197178 heartbeat IPC: 0.61296 cumulative IPC: 0.38327 (Simulation time: 0 hr 16 min 47 sec) 
Heartbeat CPU  0 instructions:  124000000 cycles:  240851061 heartbeat IPC: 0.60464 cumulative IPC: 0.38495 (Simulation time: 0 hr 16 min 54 sec) 
Heartbeat CPU  0 instructions:  125000001 cycles:  244412677 heartbeat IPC: 0.28077 cumulative IPC: 0.38327 (Simulation time: 0 hr 17 min 7 sec) 
Heartbeat CPU  0 instructions:  126000000 cycles:  247696751 heartbeat IPC: 0.30450 cumulative IPC: 0.38213 (Simulation time: 0 hr 17 min 18 sec) 
Heartbeat CPU  0 instructions:  127000000 cycles:  249684562 heartbeat IPC: 0.50307 cumulative IPC: 0.38318 (Simulation time: 0 hr 17 min 26 sec) 
Heartbeat CPU  0 instructions:  128000000 cycles:  252072225 heartbeat IPC: 0.41882 cumulative IPC: 0.38355 (Simulation time: 0 hr 17 min 33 sec) 
Heartbeat CPU  0 instructions:  129000002 cycles:  255802089 heartbeat IPC: 0.26811 cumulative IPC: 0.38171 (Simulation time: 0 hr 17 min 46 sec) 
Heartbeat CPU  0 instructions:  130000002 cycles:  258293525 heartbeat IPC: 0.40137 cumulative IPC: 0.38192 (Simulation time: 0 hr 17 min 55 sec) 
Heartbeat CPU  0 instructions:  131000001 cycles:  260741929 heartbeat IPC: 0.40843 cumulative IPC: 0.38219 (Simulation time: 0 hr 18 min 2 sec) 
Heartbeat CPU  0 instructions:  132000000 cycles:  263577301 heartbeat IPC: 0.35269 cumulative IPC: 0.38184 (Simulation time: 0 hr 18 min 12 sec) 
Heartbeat CPU  0 instructions:  133000000 cycles:  265435847 heartbeat IPC: 0.53806 cumulative IPC: 0.38304 (Simulation time: 0 hr 18 min 19 sec) 
Heartbeat CPU  0 instructions:  134000002 cycles:  269193931 heartbeat IPC: 0.26609 cumulative IPC: 0.38125 (Simulation time: 0 hr 18 min 32 sec) 
Heartbeat CPU  0 instructions:  135000001 cycles:  272715688 heartbeat IPC: 0.28395 cumulative IPC: 0.37988 (Simulation time: 0 hr 18 min 44 sec) 
Heartbeat CPU  0 instructions:  136000000 cycles:  274423918 heartbeat IPC: 0.58540 cumulative IPC: 0.38128 (Simulation time: 0 hr 18 min 50 sec) 
Heartbeat CPU  0 instructions:  137000000 cycles:  277121749 heartbeat IPC: 0.37067 cumulative IPC: 0.38117 (Simulation time: 0 hr 19 min 0 sec) 
Heartbeat CPU  0 instructions:  138000002 cycles:  281480041 heartbeat IPC: 0.22945 cumulative IPC: 0.37861 (Simulation time: 0 hr 19 min 15 sec) 
Heartbeat CPU  0 instructions:  139000002 cycles:  284001525 heartbeat IPC: 0.39659 cumulative IPC: 0.37879 (Simulation time: 0 hr 19 min 23 sec) 
Heartbeat CPU  0 instructions:  140000000 cycles:  286212073 heartbeat IPC: 0.45238 cumulative IPC: 0.37940 (Simulation time: 0 hr 19 min 31 sec) 
Finished CPU 0 instructions: 100000000 cycles: 263572433 cumulative IPC: 0.37940 (Simulation time: 0 hr 19 min 31 sec) 

ChampSim completed all CPUs

[ROI Statistics]
Core_0_instructions 100000000
Core_0_cycles 263572433
Core_0_IPC 0.37940

Core_0_branch_prediction_accuracy 98.51744
Core_0_branch_MPKI 1.68572
Core_0_average_ROB_occupancy_at_mispredict 173.11828

Core_0_L1D_total_access 46601232
Core_0_L1D_total_hit 41677747
Core_0_L1D_total_miss 4923485
Core_0_L1D_loads 22912987
Core_0_L1D_load_hit 18222351
Core_0_L1D_load_miss 4690636
Core_0_L1D_RFOs 23688245
Core_0_L1D_RFO_hit 23455396
Core_0_L1D_RFO_miss 232849
Core_0_L1D_prefetches 0
Core_0_L1D_prefetch_hit 0
Core_0_L1D_prefetch_miss 0
Core_0_L1D_writebacks 0
Core_0_L1D_writeback_hit 0
Core_0_L1D_writeback_miss 0
Core_0_L1D_prefetch_requested 0
Core_0_L1D_prefetch_dropped 0
Core_0_L1D_prefetch_issued 0
Core_0_L1D_prefetch_filled 0
Core_0_L1D_prefetch_useful 0
Core_0_L1D_prefetch_useless 0
Core_0_L1D_prefetch_late 0
Core_0_L1D_average_miss_latency 101.12584

Core_0_L1D_rq_access 33376823
Core_0_L1D_rq_forward 0
Core_0_L1D_rq_merged 10155773
Core_0_L1D_rq_to_cache 23221050
Core_0_L1D_rq_full 0

Core_0_L1D_wq_access 24899036
Core_0_L1D_wq_forward 0
Core_0_L1D_wq_merged 509433
Core_0_L1D_wq_to_cache 24389603
Core_0_L1D_wq_full 0

Core_0_L1D_pq_access 0
Core_0_L1D_pq_forward 0
Core_0_L1D_pq_merged 0
Core_0_L1D_pq_to_cache 0
Core_0_L1D_pq_full 0

Core_0_L1D_acc_epochs 267264
Core_0_L1D_acc_level_0 267264
Core_0_L1D_acc_level_1 0
Core_0_L1D_acc_level_2 0
Core_0_L1D_acc_level_3 0
Core_0_L1D_acc_level_4 0
Core_0_L1D_acc_level_5 0
Core_0_L1D_acc_level_6 0
Core_0_L1D_acc_level_7 0
Core_0_L1D_acc_level_8 0
Core_0_L1D_acc_level_9 0

Core_0_L1I_total_access 31548318
Core_0_L1I_total_hit 31548318
Core_0_L1I_total_miss 0
Core_0_L1I_loads 31548318
Core_0_L1I_load_hit 31548318
Core_0_L1I_load_miss 0
Core_0_L1I_RFOs 0
Core_0_L1I_RFO_hit 0
Core_0_L1I_RFO_miss 0
Core_0_L1I_prefetches 0
Core_0_L1I_prefetch_hit 0
Core_0_L1I_prefetch_miss 0
Core_0_L1I_writebacks 0
Core_0_L1I_writeback_hit 0
Core_0_L1I_writeback_miss 0
Core_0_L1I_prefetch_requested 0
Core_0_L1I_prefetch_dropped 0
Core_0_L1I_prefetch_issued 0
Core_0_L1I_prefetch_filled 0
Core_0_L1I_prefetch_useful 0
Core_0_L1I_prefetch_useless 0
Core_0_L1I_prefetch_late 0
Core_0_L1I_average_miss_latency -nan

Core_0_L1I_rq_access 100000080
Core_0_L1I_rq_forward 0
Core_0_L1I_rq_merged 68451762
Core_0_L1I_rq_to_cache 31548318
Core_0_L1I_rq_full 0

Core_0_L1I_wq_access 0
Core_0_L1I_wq_forward 0
Core_0_L1I_wq_merged 0
Core_0_L1I_wq_to_cache 0
Core_0_L1I_wq_full 0

Core_0_L1I_pq_access 0
Core_0_L1I_pq_forward 0
Core_0_L1I_pq_merged 0
Core_0_L1I_pq_to_cache 0
Core_0_L1I_pq_full 0

Core_0_L1I_acc_epochs 267264
Core_0_L1I_acc_level_0 267264
Core_0_L1I_acc_level_1 0
Core_0_L1I_acc_level_2 0
Core_0_L1I_acc_level_3 0
Core_0_L1I_acc_level_4 0
Core_0_L1I_acc_level_5 0
Core_0_L1I_acc_level_6 0
Core_0_L1I_acc_level_7 0
Core_0_L1I_acc_level_8 0
Core_0_L1I_acc_level_9 0

Core_0_L2C_total_access 15585529
Core_0_L2C_total_hit 8460491
Core_0_L2C_total_miss 7125038
Core_0_L2C_loads 4690610
Core_0_L2C_load_hit 2680131
Core_0_L2C_load_miss 2010479
Core_0_L2C_RFOs 232832
Core_0_L2C_RFO_hit 27499
Core_0_L2C_RFO_miss 205333
Core_0_L2C_prefetches 10110863
Core_0_L2C_prefetch_hit 5205939
Core_0_L2C_prefetch_miss 4904924
Core_0_L2C_writebacks 551224
Core_0_L2C_writeback_hit 546922
Core_0_L2C_writeback_miss 4302
Core_0_L2C_prefetch_requested 21378227
Core_0_L2C_prefetch_dropped 128561
Core_0_L2C_prefetch_issued 21249666
Core_0_L2C_prefetch_filled 6935539
Core_0_L2C_prefetch_useful 3515554
Core_0_L2C_prefetch_useless 3418577
Core_0_L2C_prefetch_late 418108
Core_0_L2C_average_miss_latency 196.43110

Core_0_L2C_rq_access 4923485
Core_0_L2C_rq_forward 0
Core_0_L2C_rq_merged 0
Core_0_L2C_rq_to_cache 4923442
Core_0_L2C_rq_full 0

Core_0_L2C_wq_access 551224
Core_0_L2C_wq_forward 50
Core_0_L2C_wq_merged 0
Core_0_L2C_wq_to_cache 551224
Core_0_L2C_wq_full 0

Core_0_L2C_pq_access 21249666
Core_0_L2C_pq_forward 0
Core_0_L2C_pq_merged 2826558
Core_0_L2C_pq_to_cache 18423101
Core_0_L2C_pq_full 0

Core_0_L2C_acc_epochs 267264
Core_0_L2C_acc_level_0 46
Core_0_L2C_acc_level_1 1331
Core_0_L2C_acc_level_2 7030
Core_0_L2C_acc_level_3 13752
Core_0_L2C_acc_level_4 66798
Core_0_L2C_acc_level_5 68430
Core_0_L2C_acc_level_6 32455
Core_0_L2C_acc_level_7 21691
Core_0_L2C_acc_level_8 14920
Core_0_L2C_acc_level_9 40811

Core_0_LLC_total_access 7576777
Core_0_LLC_total_hit 924001
Core_0_LLC_total_miss 6652776
Core_0_LLC_loads 1612121
Core_0_LLC_load_hit 154688
Core_0_LLC_load_miss 1457433
Core_0_LLC_RFOs 203889
Core_0_LLC_RFO_hit 646
Core_0_LLC_RFO_miss 203243
Core_0_LLC_prefetches 5304726
Core_0_LLC_prefetch_hit 555812
Core_0_LLC_prefetch_miss 4748914
Core_0_LLC_writebacks 456041
Core_0_LLC_writeback_hit 212855
Core_0_LLC_writeback_miss 243186
Core_0_LLC_prefetch_requested 0
Core_0_LLC_prefetch_dropped 0
Core_0_LLC_prefetch_issued 0
Core_0_LLC_prefetch_filled 6596478
Core_0_LLC_prefetch_useful 8703
Core_0_LLC_prefetch_useless 6573345
Core_0_LLC_prefetch_late 0
Core_0_LLC_average_miss_latency 182.32422

Core_0_LLC_rq_access 1816010
Core_0_LLC_rq_forward 0
Core_0_LLC_rq_merged 0
Core_0_LLC_rq_to_cache 1816010
Core_0_LLC_rq_full 0

Core_0_LLC_wq_access 456041
Core_0_LLC_wq_forward 0
Core_0_LLC_wq_merged 0
Core_0_LLC_wq_to_cache 456041
Core_0_LLC_wq_full 0

Core_0_LLC_pq_access 7353649
Core_0_LLC_pq_forward 0
Core_0_LLC_pq_merged 0
Core_0_LLC_pq_to_cache 7353649
Core_0_LLC_pq_full 0

Core_0_LLC_acc_epochs 279504
Core_0_LLC_acc_level_0 276653
Core_0_LLC_acc_level_1 1080
Core_0_LLC_acc_level_2 561
Core_0_LLC_acc_level_3 251
Core_0_LLC_acc_level_4 71
Core_0_LLC_acc_level_5 330
Core_0_LLC_acc_level_6 77
Core_0_LLC_acc_level_7 89
Core_0_LLC_acc_level_8 37
Core_0_LLC_acc_level_9 355

Core_0_major_page_fault 0
Core_0_minor_page_fault 27628

scooby_st_lookup 6845724
scooby_st_hit 6653649
scooby_st_evict 192011
scooby_st_insert 192075
scooby_st_streaming 0

scooby_predict_called 6845724
scooby_predict_out_of_bounds 176121
scooby_predict_action_1 2327247
scooby_predict_issue_action_1 2070077
scooby_predict_hit_action_1 257170
scooby_predict_out_of_bounds_action_1 37253
scooby_predict_action_3 1417
scooby_predict_issue_action_3 1047
scooby_predict_hit_action_3 370
scooby_predict_out_of_bounds_action_3 72
scooby_predict_action_4 2092
scooby_predict_issue_action_4 1499
scooby_predict_hit_action_4 593
scooby_predict_out_of_bounds_action_4 95
scooby_predict_action_5 1069
scooby_predict_issue_action_5 719
scooby_predict_hit_action_5 350
scooby_predict_out_of_bounds_action_5 79
scooby_predict_action_10 1046
scooby_predict_issue_action_10 638
scooby_predict_hit_action_10 408
scooby_predict_out_of_bounds_action_10 182
scooby_predict_action_11 1034
scooby_predict_issue_action_11 600
scooby_predict_hit_action_11 434
scooby_predict_out_of_bounds_action_11 195
scooby_predict_action_12 972
scooby_predict_issue_action_12 703
scooby_predict_hit_action_12 269
scooby_predict_out_of_bounds_action_12 218
scooby_predict_action_22 681
scooby_predict_issue_action_22 433
scooby_predict_hit_action_22 248
scooby_predict_out_of_bounds_action_22 462
scooby_predict_action_23 666
scooby_predict_issue_action_23 472
scooby_predict_hit_action_23 194
scooby_predict_out_of_bounds_action_23 439
scooby_predict_action_30 539
scooby_predict_issue_action_30 352
scooby_predict_hit_action_30 187
scooby_predict_out_of_bounds_action_30 558
scooby_predict_action_32 467
scooby_predict_issue_action_32 315
scooby_predict_hit_action_32 152
scooby_predict_out_of_bounds_action_32 525
scooby_predict_action_-1 2129617
scooby_predict_issue_action_-1 1957397
scooby_predict_hit_action_-1 172220
scooby_predict_out_of_bounds_action_-1 34007
scooby_predict_action_-3 2040395
scooby_predict_issue_action_-3 1225679
scooby_predict_hit_action_-3 814716
scooby_predict_out_of_bounds_action_-3 101949
scooby_predict_action_-6 1099
scooby_predict_issue_action_-6 1017
scooby_predict_hit_action_-6 82
scooby_predict_out_of_bounds_action_-6 87
scooby_predict_action_0 161262
scooby_predict_issue_action_0 0
scooby_predict_hit_action_0 0
scooby_predict_out_of_bounds_action_0 0
scooby_predict_multi_deg_called 4210859
scooby_predict_predicted 21378227
scooby_predict_multi_deg 16117279
scooby_predict_multi_deg_2 4112537
scooby_predict_multi_deg_3 3577537
scooby_predict_multi_deg_4 3499755
scooby_predict_multi_deg_5 2499082
scooby_predict_multi_deg_6 2428368
scooby_predict_multi_deg_7 0
scooby_predict_multi_deg_8 0
scooby_predict_multi_deg_9 0
scooby_predict_multi_deg_10 0
scooby_predict_multi_deg_11 0
scooby_predict_multi_deg_12 0
scooby_predict_multi_deg_13 0
scooby_predict_multi_deg_14 0
scooby_predict_multi_deg_15 0
scooby_predict_multi_deg_16 0

scooby_selected_deg_1 1050089
scooby_selected_deg_2 474122
scooby_selected_deg_3 0
scooby_selected_deg_4 953560
scooby_selected_deg_5 0
scooby_selected_deg_6 2783177
scooby_selected_deg_7 0
scooby_selected_deg_8 0
scooby_selected_deg_9 0
scooby_selected_deg_10 0
scooby_selected_deg_11 0
scooby_selected_deg_12 0
scooby_selected_deg_13 0
scooby_selected_deg_14 0
scooby_selected_deg_15 0
scooby_selected_deg_16 0

scooby_state_402dc3|63|0 28777,1,3,0,3,6,2,2,4,4,3,2,2,5,2,28816,
scooby_state_402dc3|61|0 28619,2,5,2,3,1,3,1,4,3,9,3,4,4,5,28668,
scooby_state_402dc3|62|0 28500,0,4,3,5,4,6,2,2,4,3,3,2,0,2,28540,
scooby_state_402dfb|63|0 935,5,2,3,6,2,4,0,3,4,4,9990,11199,2,3,22162,
scooby_state_402dc3|60|-3 17988,1,1,2,1,2,3,3,0,1,3,1,1,3,0,18010,
scooby_state_402dc3|59|-4 14703,4,1,2,1,2,0,2,0,1,2,0,5,0,1,14724,
scooby_state_402dc3|57|-3 14411,1,2,1,3,0,3,0,1,2,0,1,0,1,0,14426,
scooby_state_402dc0|54|-1 0,1,0,5,1,2,2,1,2,1,3,14382,4,1,2,14407,
scooby_state_402dc0|52|-1 2,3,3,1,4,2,3,1,0,1,3,14378,1,1,4,14407,
scooby_state_402dc0|53|-1 2,2,3,1,1,3,3,4,2,7,1,14375,2,0,1,14407,
scooby_state_402dc0|55|-1 2,5,3,0,2,1,4,3,1,0,5,14375,3,1,0,14405,
scooby_state_402dc0|56|-1 2,4,0,0,2,3,0,4,1,2,2,14381,2,0,0,14403,
scooby_state_402dc0|57|-1 1,2,2,4,3,2,2,4,2,2,0,14370,4,0,3,14401,
scooby_state_402dc0|58|-1 2,2,1,0,2,2,3,2,0,0,2,14379,2,2,0,14399,
scooby_state_402dc0|59|-1 2,4,2,0,2,2,4,1,1,1,1,14369,3,1,4,14397,
scooby_state_402dc0|60|-1 1,2,1,0,3,1,1,2,1,0,0,14379,1,1,2,14395,
scooby_state_402dc0|61|-1 3,1,2,6,3,3,2,5,2,3,1,14359,0,0,3,14393,
scooby_state_402dc0|62|-1 1,2,5,2,4,1,2,1,1,2,0,14366,1,2,1,14391,
scooby_state_402dc0|63|0 4,4,1,1,3,1,2,1,1,3,3,14359,3,2,1,14389,
scooby_state_402dc0|0|-1 2,2,3,5,1,2,6,2,3,2,4,14350,0,3,2,14387,
scooby_state_402dc0|1|-1 2,3,2,2,2,2,2,0,5,0,3,14355,4,2,1,14385,
scooby_state_402dc0|2|-1 3,1,2,4,0,1,4,2,2,5,3,14352,0,1,3,14383,
scooby_state_402dc0|3|-1 3,3,6,5,1,2,2,1,1,2,1,14349,1,2,2,14381,
scooby_state_402dc0|4|-1 2,2,4,5,2,1,1,2,0,2,1,14352,1,1,3,14379,
scooby_state_402dc0|5|-1 1,0,2,1,2,4,3,3,1,1,2,14351,1,1,4,14377,
scooby_state_402dc0|6|-1 1,3,1,4,0,3,4,1,3,1,1,14349,1,1,2,14375,
scooby_state_402dc0|7|-1 1,0,2,3,5,1,6,0,3,3,1,14345,1,2,0,14373,
scooby_state_402dc0|8|-1 3,2,1,1,2,1,3,4,1,1,1,14343,2,2,4,14371,
scooby_state_402dc0|9|-1 3,2,1,2,4,4,2,2,4,2,1,14337,0,1,4,14369,
scooby_state_402dc0|10|-1 3,1,5,2,2,1,3,1,0,2,1,14341,2,2,1,14367,
scooby_state_402dc0|11|-1 1,2,1,5,2,1,3,1,2,2,2,14339,2,1,1,14365,
scooby_state_402dc0|12|-1 1,1,1,1,0,1,2,2,3,3,2,14335,2,4,5,14363,
scooby_state_402dc3|58|-3 14336,1,1,3,2,1,2,1,4,2,2,1,4,1,2,14363,
scooby_state_402dc0|13|-1 4,2,0,2,1,2,2,2,1,2,1,14337,3,2,0,14361,
scooby_state_402dc0|14|-1 4,2,1,3,2,2,3,1,2,2,3,14326,3,3,2,14359,
scooby_state_402dc0|15|-1 3,1,1,4,3,1,3,1,2,4,2,14323,1,4,3,14356,
scooby_state_402dc0|16|-1 3,2,1,2,3,2,2,1,2,1,0,14329,2,3,1,14354,
scooby_state_402dc0|17|-1 3,1,3,4,1,2,3,0,2,0,2,14323,2,3,3,14352,
scooby_state_402dc0|18|-1 1,4,0,2,1,2,3,3,1,1,1,14325,3,2,1,14350,
scooby_state_402dc0|19|-1 2,2,2,2,3,0,2,1,3,2,1,14321,2,1,4,14348,
scooby_state_402dc0|20|-1 1,3,5,2,3,1,4,3,1,2,1,14311,3,3,3,14346,
scooby_state_402dc0|21|-1 1,1,3,2,3,3,2,1,1,3,0,14316,3,2,3,14344,
scooby_state_402dc3|54|-3 14315,2,2,1,3,2,5,2,3,0,1,0,2,0,5,14343,
scooby_state_402dc0|22|-1 2,1,2,1,1,4,0,1,0,1,2,14322,1,2,2,14342,
scooby_state_402dc0|23|-1 1,5,6,4,2,4,2,1,1,2,3,14303,1,2,3,14340,
scooby_state_402dc0|24|-1 2,2,1,4,2,3,2,2,0,3,2,14314,1,0,0,14338,
scooby_state_402dc0|25|-1 3,1,5,2,2,2,1,1,2,1,1,14310,0,2,3,14336,
scooby_state_402dc0|26|-1 0,1,3,0,2,1,1,2,3,1,0,14317,1,1,1,14334,
scooby_state_402dc0|27|-1 3,2,1,1,3,2,2,0,0,0,1,14312,2,2,1,14332,
scooby_state_402dc0|28|-1 2,0,1,2,1,1,2,1,1,1,2,14313,1,2,0,14330,
scooby_state_402dc0|29|-1 0,0,1,1,0,3,2,0,0,0,1,14310,3,3,4,14328,
scooby_state_402dc0|30|-1 0,1,3,1,2,6,3,1,2,5,2,14294,2,3,1,14326,
scooby_state_402dc0|31|-1 1,2,3,2,3,2,1,2,2,2,3,14296,1,2,2,14324,
scooby_state_402dc0|32|-1 2,2,3,0,0,3,1,5,3,4,2,14291,2,1,3,14322,
scooby_state_402dc0|33|-1 4,2,5,3,0,3,0,1,3,1,0,14296,1,0,1,14320,
scooby_state_402dc0|34|-1 1,4,2,2,2,5,3,6,4,0,4,14278,1,2,4,14318,
scooby_state_402dc0|35|-1 2,3,1,0,1,7,3,1,5,4,2,14280,3,3,1,14316,
scooby_state_402dc0|49|-1 1,2,2,1,1,0,3,3,0,2,1,14293,2,3,1,14315,
scooby_state_402dc0|45|-1 2,4,3,3,2,3,1,4,0,3,1,14285,3,1,0,14315,
scooby_state_402dc0|40|-1 2,1,4,0,3,3,3,2,2,0,2,14290,3,0,0,14315,
scooby_state_402dc0|39|-1 1,2,1,1,2,6,1,1,2,0,1,14292,3,1,1,14315,
scooby_state_402dc0|50|-1 3,3,2,1,2,5,1,1,3,1,5,14283,3,2,0,14315,
scooby_state_402dc0|41|-1 2,1,1,0,2,0,5,2,0,1,1,14294,1,3,2,14315,
scooby_state_402dc0|43|-1 0,1,0,2,3,1,1,1,3,3,1,14298,0,1,0,14315,
scooby_state_402dc0|47|-1 2,3,2,3,3,2,1,3,0,1,0,14292,2,0,1,14315,
scooby_state_402dc0|48|-1 3,2,1,1,3,0,2,2,0,1,3,14290,2,4,1,14315,
scooby_state_402dc0|51|-1 2,1,1,1,2,2,1,3,1,5,3,14292,0,0,1,14315,
scooby_state_402dc0|42|-1 1,5,3,3,2,0,2,2,4,0,0,14284,6,1,2,14315,
scooby_state_402dc0|46|-1 0,2,2,2,1,1,2,3,3,1,5,14286,1,4,2,14315,
scooby_state_402dc0|44|-1 2,3,1,1,2,6,2,1,3,2,0,14288,1,1,2,14315,
scooby_state_402dc0|36|-1 0,2,2,1,2,3,3,0,3,2,0,14291,1,2,2,14314,
scooby_state_402dc0|37|-1 4,3,1,1,3,3,0,2,2,8,0,14281,2,3,1,14314,
scooby_state_402dc0|38|-1 2,3,3,0,2,4,4,2,3,5,0,14281,0,3,2,14314,
scooby_state_402dc3|59|-3 14067,2,1,0,3,4,2,0,2,0,1,0,1,0,4,14087,
scooby_state_402dc3|56|-4 13776,1,3,2,1,4,2,4,3,1,3,2,0,2,1,13805,
scooby_state_402dc3|55|-3 13766,1,1,0,3,2,0,2,2,1,1,2,1,5,1,13788,
scooby_state_402dc3|56|-3 13702,2,2,2,2,2,2,4,0,1,1,0,2,2,0,13724,
scooby_state_402dc3|57|-4 13609,1,0,1,4,3,1,1,2,2,1,2,1,1,3,13632,
scooby_state_402dc3|53|-3 13343,1,4,1,3,2,1,2,5,5,2,0,2,1,5,13377,
scooby_state_402dc3|58|-4 13294,2,1,2,0,1,2,0,2,4,2,0,0,0,1,13311,
scooby_state_402dc3|55|-4 12280,4,5,1,3,3,0,3,2,3,0,1,0,0,1,12306,
scooby_state_402dc3|53|-4 12234,5,4,2,1,3,1,0,1,5,2,1,2,2,1,12264,
scooby_state_402dc3|54|-4 11814,0,1,0,2,1,2,0,1,2,0,2,3,2,5,11835,
scooby_state_402dc3|47|-4 11778,1,2,0,0,3,2,2,4,3,3,2,1,1,0,11802,
scooby_state_402dfb|24|-2 0,2,3,1,1,1,5,0,2,1,0,9976,1761,1,1,11755,
scooby_state_402dfb|0|-1 5,0,1,3,3,7,1,1,1,4,0,6310,5306,2,3,11647,
scooby_state_402dfb|40|-2 2,2,2,1,2,0,2,0,1,1,1,9995,1618,2,4,11633,
scooby_state_402dfb|61|-2 1,2,0,1,0,2,0,2,3,1,0,9855,1702,2,1,11572,
scooby_state_402dfb|8|-2 0,0,2,1,1,4,2,1,1,2,1,9861,1659,0,1,11536,
scooby_state_402dc3|50|-3 11512,1,3,2,0,2,2,3,0,2,0,1,0,3,4,11535,
scooby_state_402dfb|44|-2 2,0,0,1,4,2,3,4,1,1,0,9830,1629,3,1,11481,
scooby_state_402dfb|53|-2 4,0,2,4,1,0,0,1,3,2,1,9777,1678,2,0,11475,
scooby_state_402dfb|16|-1 1,4,0,2,2,3,2,1,1,0,1,6112,5340,4,2,11475,
scooby_state_402dfb|24|-1 0,1,0,0,0,3,2,1,5,0,1,6342,5116,2,0,11473,
scooby_state_402dfb|50|-2 0,1,0,1,2,0,3,1,2,3,3,9804,1613,2,1,11436,
scooby_state_402dfb|53|-1 0,2,1,1,2,2,1,3,0,0,1,6332,5054,2,2,11403,
scooby_state_402dfb|56|-2 2,1,1,3,4,4,2,2,2,1,4,9721,1654,1,0,11402,
scooby_state_402dfb|34|-2 0,2,1,1,2,0,3,3,3,2,0,9704,1660,0,0,11381,
scooby_state_402dfb|51|-2 1,0,3,2,2,2,3,2,2,2,4,9667,1675,2,1,11368,
scooby_state_402dfb|38|-2 0,4,0,3,2,2,0,1,1,2,4,9684,1651,3,2,11359,
scooby_state_402dfb|35|-2 2,2,1,3,1,2,2,0,3,3,1,9705,1632,1,0,11358,
scooby_state_402dfb|26|-1 1,4,0,3,2,2,1,2,1,2,0,6150,5131,2,3,11304,
scooby_state_402dfb|43|-2 2,2,2,1,2,2,1,4,2,0,2,9678,1590,0,1,11289,
scooby_state_402dfb|6|-2 1,2,0,0,5,2,4,3,2,3,1,9606,1649,3,0,11281,
scooby_state_402dfb|11|-1 2,3,2,0,5,0,2,1,3,1,4,6374,4873,0,1,11271,
scooby_state_402dfb|62|0 439,2,1,3,2,0,1,0,3,2,3,4994,5813,1,1,11265,
scooby_state_402dfb|19|-2 2,0,0,0,3,1,1,3,2,1,1,9621,1617,0,3,11255,
scooby_state_402dfb|28|-2 2,1,2,1,3,0,3,2,0,1,3,9620,1603,3,1,11245,
scooby_state_402dfb|42|-1 1,2,3,3,3,3,2,2,4,1,2,5938,5279,1,1,11245,
scooby_state_402dfb|52|-2 4,1,2,0,2,3,4,1,2,2,1,9607,1603,3,0,11235,
scooby_state_402dc3|46|-3 11212,1,3,1,0,1,0,3,3,2,3,3,1,1,0,11234,
scooby_state_402dfb|37|-2 4,3,5,0,1,2,1,4,0,1,2,9556,1635,2,4,11220,
scooby_state_402dfb|21|-1 1,3,0,1,2,0,0,1,1,0,0,6383,4820,0,0,11212,
scooby_state_402dfb|8|-1 2,3,1,0,1,1,1,2,1,3,0,6303,4871,0,1,11190,
scooby_state_402dc3|52|-4 11146,2,2,1,4,3,2,1,0,1,2,2,0,0,1,11167,
scooby_state_402dfb|48|-1 1,2,5,2,0,2,2,3,3,1,2,6426,4691,1,2,11143,
scooby_state_402dfb|42|-2 0,3,3,4,0,2,1,0,2,2,2,9452,1646,0,2,11119,
scooby_state_402dfb|27|-1 3,0,1,1,2,1,0,2,1,1,3,5992,5105,1,1,11114,
scooby_state_402dfb|17|-2 1,1,2,0,2,2,3,1,3,0,2,9521,1547,1,0,11086,
scooby_state_402dfb|22|-2 0,4,1,1,1,1,1,2,2,1,2,9466,1576,0,3,11061,
scooby_state_402dc3|50|-4 11039,2,1,2,1,1,4,1,0,0,1,1,1,1,2,11057,
scooby_state_402dfb|52|-1 1,3,0,2,0,2,2,1,5,1,0,6139,4896,1,2,11055,
scooby_state_402dfb|46|-1 1,4,2,1,3,2,1,2,0,1,2,6351,4679,0,0,11049,
scooby_state_402dfb|4|-1 2,1,0,3,2,1,2,2,1,1,1,6040,4987,1,2,11046,
scooby_state_402dfb|37|-1 4,1,1,1,2,4,0,0,3,4,2,6275,4735,2,0,11034,
scooby_state_402dc3|51|-3 11011,1,2,0,1,0,3,3,1,4,1,2,3,1,0,11033,
scooby_state_402dfb|26|-2 0,4,2,1,2,1,0,1,3,2,3,9531,1469,1,2,11022,
scooby_state_402dfb|7|-2 2,2,1,1,1,2,4,1,1,1,1,9497,1504,3,1,11022,
scooby_state_402dfb|41|-2 0,0,2,5,3,0,0,5,3,3,1,9521,1473,0,0,11016,
scooby_state_402dfb|1|-2 0,1,5,5,3,2,1,0,3,1,1,9475,1517,2,0,11016,
scooby_state_402dfb|32|-1 2,2,0,1,0,1,0,2,2,1,3,6146,4837,0,2,10999,
scooby_state_402dfb|27|-2 2,2,1,2,3,1,1,1,1,2,2,9414,1562,0,2,10996,
scooby_state_402dfb|3|-2 1,1,2,0,1,1,0,4,0,1,2,9436,1542,0,1,10992,
scooby_state_402dcb|0|-3 17,6,6,1,0,1,3,1,2,0,3,185,10761,1,1,10988,
scooby_state_402dfb|12|-2 4,2,0,1,3,0,2,2,1,0,3,9375,1574,3,1,10971,
scooby_state_402dc3|49|-3 10949,0,1,0,5,1,2,0,1,1,2,0,3,1,2,10968,
scooby_state_402dfb|47|-2 1,2,0,0,3,1,4,2,2,1,2,9441,1505,1,3,10968,
scooby_state_402dfb|5|-2 3,2,3,1,1,1,1,0,3,3,3,9378,1555,0,2,10956,
scooby_state_402dfb|60|-2 1,2,0,0,4,3,4,1,3,5,1,9329,1591,2,1,10947,
scooby_state_402dfb|16|-2 3,2,3,1,0,1,1,3,0,1,0,9294,1623,3,0,10935,
scooby_state_402dc3|45|-3 10900,1,1,0,0,1,2,0,1,0,2,0,2,2,2,10914,
scooby_state_402dc3|31|-4 10890,3,1,2,0,1,2,1,2,1,4,1,1,1,2,10912,
scooby_state_402dfb|23|-2 3,2,0,1,3,3,0,2,2,3,0,9370,1518,1,2,10910,
scooby_state_402dfb|10|-1 2,2,5,2,0,1,0,1,0,6,2,6381,4498,5,3,10908,
scooby_state_402dfb|48|-2 4,0,0,2,1,2,1,2,5,0,1,9387,1494,1,3,10903,
scooby_state_402dfb|49|-2 4,0,3,0,4,1,2,3,2,0,1,9310,1568,1,3,10902,
scooby_state_402dfb|29|-2 3,0,2,1,3,0,2,1,0,3,0,9370,1513,2,1,10901,
scooby_state_402dfb|36|-1 0,1,4,1,2,2,4,1,1,3,2,6311,4552,1,4,10889,
scooby_state_402dfb|28|-1 0,1,3,2,1,0,1,3,3,1,2,6057,4808,2,0,10884,
scooby_state_402dfb|13|-2 3,0,2,2,0,6,0,0,0,1,0,9313,1540,0,0,10867,
scooby_state_402dfb|5|-1 1,2,2,2,2,1,0,3,1,1,2,6099,4742,2,3,10863,
scooby_state_402dfb|45|-2 2,1,1,3,1,4,2,0,3,0,0,9390,1450,1,1,10859,
scooby_state_402dfb|10|-2 3,2,0,3,3,5,0,2,1,2,1,9276,1547,0,2,10847,
scooby_state_402dfb|44|-1 1,1,2,1,2,0,2,1,0,2,0,6160,4668,1,0,10841,
scooby_state_402dfb|2|-1 1,2,3,3,1,1,1,4,0,2,1,6116,4687,0,2,10824,
scooby_state_402dfb|45|-1 5,4,3,0,2,4,1,2,1,1,1,6076,4719,1,2,10822,
scooby_state_402dc3|36|-4 10801,3,0,1,2,1,0,1,0,0,1,2,0,0,1,10813,
scooby_state_402dfb|0|-2 5,0,3,2,2,1,1,0,2,2,0,9225,1565,1,2,10811,
scooby_state_402dc3|60|0 10790,0,1,0,1,2,3,3,3,0,0,2,1,0,0,10806,
scooby_state_402dfb|58|-2 1,0,1,2,1,1,3,2,1,1,1,9292,1490,1,2,10799,
scooby_state_402dfb|39|-1 3,2,1,1,1,0,3,1,3,0,1,6069,4711,0,2,10798,
scooby_state_402dfb|51|-1 0,0,2,2,2,1,1,3,0,2,2,6175,4601,1,1,10793,
scooby_state_402dfb|17|-1 3,0,1,2,1,2,3,4,2,1,2,5928,4828,4,1,10782,
scooby_state_402dfb|20|-1 4,2,2,2,1,2,1,1,2,3,3,6218,4530,1,1,10773,
scooby_state_402dfb|23|-1 5,0,3,1,2,1,2,1,1,1,1,6412,4324,1,2,10757,
scooby_state_402dfb|15|-2 1,0,2,2,2,0,1,3,0,1,1,9226,1493,2,1,10735,
scooby_state_402dfb|13|-1 2,0,1,0,2,1,1,3,2,0,1,6199,4514,1,5,10732,
scooby_state_402dfb|18|-2 2,2,2,0,1,3,1,2,0,2,3,9226,1472,2,1,10719,
scooby_state_402dfb|33|-1 1,2,1,0,3,0,2,1,2,3,3,6138,4523,3,4,10686,
scooby_state_402dfb|39|-2 3,4,3,0,2,1,1,1,1,2,1,9190,1467,2,4,10682,
scooby_state_402dfb|21|-2 1,3,1,2,1,2,2,2,1,3,2,9135,1515,0,2,10672,
scooby_state_402dfb|22|-1 2,1,1,2,2,3,0,3,3,0,3,6218,4423,2,1,10664,
scooby_state_402dfb|30|-2 1,2,1,3,1,3,1,3,2,1,2,9208,1423,0,0,10651,
scooby_state_402dc3|44|-4 10630,1,3,2,4,2,0,0,2,0,1,1,0,1,1,10648,
scooby_state_402dc3|44|-3 10618,1,1,2,2,1,2,2,1,1,1,1,3,1,0,10637,
scooby_state_402dfb|12|-1 2,1,0,1,2,2,2,3,0,3,1,6118,4498,2,1,10636,
scooby_state_402dfb|30|-1 2,1,3,1,1,2,1,1,1,2,1,5922,4686,1,2,10627,
scooby_state_402dc3|48|-3 10608,0,1,0,2,1,0,3,2,0,2,0,3,1,0,10623,
scooby_state_402dc3|51|-4 10607,4,0,2,1,0,1,0,0,1,0,3,2,1,1,10623,
scooby_state_402dfb|43|-1 3,2,2,3,3,1,0,4,1,4,1,5981,4616,0,1,10622,
scooby_state_402dc3|40|-4 10605,1,2,1,3,1,1,1,1,1,1,2,0,2,0,10622,
scooby_state_402dfb|14|-1 0,2,4,3,0,1,2,5,2,1,2,6040,4552,2,1,10617,
scooby_state_402dfb|46|-2 3,1,2,2,0,2,0,3,1,1,1,9119,1469,0,3,10607,
scooby_state_402dfb|33|-2 0,1,1,4,2,4,1,4,1,0,2,9207,1375,2,2,10606,
scooby_state_402dfb|32|-2 4,1,3,1,4,1,1,2,4,0,1,9094,1485,0,2,10603,
scooby_state_402dfb|41|-1 0,1,1,0,3,2,1,0,1,1,4,6021,4557,2,3,10597,
scooby_state_402dc3|46|-4 10550,1,1,2,0,1,0,2,3,0,0,0,2,1,0,10563,
scooby_state_402dc3|15|-4 10539,5,0,0,1,3,0,0,1,3,1,0,1,1,0,10555,
scooby_state_402dfb|19|-1 2,3,1,2,3,3,1,0,1,1,1,5982,4540,0,1,10541,
scooby_state_402dfb|40|-1 3,0,3,0,0,3,0,1,6,1,2,6086,4427,1,0,10533,
scooby_state_402dfb|14|-2 6,4,1,0,1,2,0,4,2,0,1,9052,1455,1,3,10532,
scooby_state_402dfb|1|-1 2,1,0,3,0,1,1,1,2,0,0,5885,4632,0,4,10532,
scooby_state_402dfb|25|-1 0,1,3,3,5,0,2,1,2,3,0,5985,4489,2,2,10498,
scooby_state_402dfb|55|-1 1,0,2,2,1,2,0,0,1,1,2,5896,4585,2,2,10497,
scooby_state_402dfb|18|-1 0,1,1,0,3,4,4,1,3,0,1,5950,4483,1,4,10456,
scooby_state_402dc3|26|-3 10415,2,3,2,0,2,0,0,1,3,0,1,0,1,2,10432,
scooby_state_402dfb|2|-2 1,1,4,2,0,3,2,1,2,0,1,8994,1414,3,1,10429,
scooby_state_402dfb|58|-1 2,1,2,0,1,3,1,1,2,1,3,6061,4341,1,5,10425,
scooby_state_402dfb|61|-1 0,2,1,2,2,1,0,2,4,0,3,6167,4221,4,3,10412,
scooby_state_402dfb|38|-1 0,2,2,0,2,2,0,5,1,2,3,6030,4343,1,4,10397,
scooby_state_402dfb|54|-2 1,1,1,0,1,2,1,1,0,1,2,8997,1380,1,2,10391,
scooby_state_402dfb|49|-1 3,3,2,1,1,0,2,2,0,1,3,6232,4113,6,2,10371,
scooby_state_402dfb|9|-2 1,2,2,1,4,2,2,1,1,0,1,8996,1351,2,4,10370,
scooby_state_402dfb|59|-2 2,1,3,2,2,4,2,2,1,1,4,8912,1423,1,0,10360,
scooby_state_402dfb|50|-1 2,0,1,2,0,2,3,1,2,2,3,6037,4302,0,1,10358,
scooby_state_402dfb|34|-1 0,1,4,0,2,1,1,0,2,0,2,5987,4349,0,3,10352,
scooby_state_402dc3|49|-4 10320,0,1,1,1,2,1,3,1,2,0,2,2,6,1,10343,
scooby_state_402dfb|15|-1 2,0,1,4,3,1,1,3,1,2,2,5906,4394,5,1,10326,
scooby_state_402dfb|56|-1 2,3,2,2,2,3,2,4,3,2,1,5850,4445,1,1,10323,
scooby_state_402dfb|6|-1 3,3,1,2,1,0,2,1,2,1,2,5943,4354,1,2,10318,
scooby_state_402dfb|55|-2 4,4,0,1,0,2,1,1,0,1,0,8924,1377,1,0,10316,
scooby_state_402dfb|54|-1 3,2,1,1,1,1,3,2,2,1,2,5865,4427,1,1,10313,
scooby_state_402dc3|7|-4 10303,1,1,0,0,1,2,2,0,0,0,2,0,0,1,10313,
scooby_state_402dfb|9|-1 2,2,2,2,3,0,2,1,2,1,2,6118,4172,2,0,10311,
scooby_state_402dc3|41|-3 10284,1,0,1,2,1,1,0,1,1,3,1,0,1,2,10299,
scooby_state_402dfb|36|-2 3,2,1,4,2,0,0,2,1,1,3,8873,1402,0,2,10296,
scooby_state_402dfb|7|-1 1,3,3,3,0,1,1,2,2,1,0,6067,4196,0,1,10281,
scooby_state_402dc3|20|-4 10259,3,2,2,1,0,3,2,1,1,2,1,0,0,1,10278,
scooby_state_402dc3|43|-4 10251,1,0,0,1,2,1,1,2,1,1,2,0,2,1,10266,
scooby_state_402dfb|11|-2 3,1,3,0,1,4,2,1,1,0,0,8845,1399,0,5,10265,
scooby_state_402dc3|48|-4 10245,0,2,2,2,2,0,3,1,3,0,0,0,0,2,10262,
scooby_state_402dfb|59|-1 0,3,1,1,3,0,4,1,2,1,3,6018,4219,1,0,10257,
scooby_state_402dfb|4|-2 1,1,1,2,1,0,2,1,0,2,2,8867,1375,1,0,10256,
scooby_state_402dfb|3|-1 1,2,1,0,4,1,3,1,1,0,2,5828,4410,1,0,10255,
scooby_state_402dfb|20|-2 2,1,1,2,3,0,2,3,0,0,2,8824,1413,0,1,10254,
scooby_state_402dfb|25|-2 0,2,0,3,3,0,2,0,2,3,2,8864,1368,2,2,10253,
scooby_state_402dc3|10|-3 10237,0,0,1,0,2,1,1,1,2,1,1,0,1,0,10248,
scooby_state_402dfb|31|-2 2,0,3,1,1,1,1,4,2,1,0,8839,1385,1,0,10241,
scooby_state_402dfb|29|-1 2,1,1,2,2,2,1,2,3,3,0,5818,4390,1,2,10230,
scooby_state_402dc3|45|-4 10211,0,0,0,2,2,1,3,1,3,1,0,1,3,1,10229,
scooby_state_402dfb|57|-1 0,4,2,3,2,0,2,2,2,3,1,5988,4216,2,1,10228,
scooby_state_402dc3|42|-3 10209,1,0,1,1,2,0,0,2,2,2,4,0,2,1,10227,
scooby_state_402dc3|23|-4 10185,3,1,2,2,1,0,3,0,2,0,1,1,1,2,10204,
scooby_state_402dc3|52|-3 10178,1,2,1,1,0,1,1,1,0,0,0,2,1,0,10189,
scooby_state_402dc3|13|-3 10160,4,1,0,0,2,1,0,3,3,2,2,1,0,0,10179,
scooby_state_402dc3|14|-3 10148,0,2,1,4,0,0,0,2,0,1,0,2,2,0,10162,
scooby_state_402dc3|24|-3 10110,2,0,0,2,2,2,0,0,1,0,2,2,1,1,10125,
scooby_state_402dc3|18|-4 10101,1,1,2,2,1,0,1,0,1,3,1,6,1,2,10123,
scooby_state_402dc3|5|-4 10108,1,0,3,0,2,1,0,1,1,1,1,0,0,2,10121,
scooby_state_402dc3|42|-4 10094,1,2,1,3,0,0,1,2,1,0,0,2,3,1,10111,
scooby_state_402dc3|29|-3 10089,1,1,1,3,1,0,2,1,0,0,1,1,2,1,10104,
scooby_state_402dc3|43|-3 10038,2,0,0,0,2,1,0,2,0,1,0,2,1,0,10049,
scooby_state_402dc3|2|-4 10015,1,0,1,0,1,1,4,1,3,2,1,1,0,2,10033,
scooby_state_402dc3|21|-4 10015,1,0,0,2,1,0,1,1,1,2,0,0,1,1,10026,
scooby_state_402dc3|3|-4 9993,1,0,1,2,0,1,1,2,1,4,1,2,0,0,10009,
scooby_state_402dc3|22|-3 9994,2,2,1,1,2,1,2,0,0,0,2,0,1,0,10008,
scooby_state_402dc3|41|-4 9989,2,1,3,0,0,0,2,3,3,2,0,0,0,1,10006,
scooby_state_402dfb|35|-1 1,3,2,2,2,2,0,2,3,1,1,5870,4105,4,0,9998,
scooby_state_402dc3|23|-3 9976,1,2,0,0,1,2,0,3,0,1,1,1,1,2,9991,
scooby_state_402dc3|30|-3 9961,3,1,1,1,0,0,0,2,0,1,0,1,0,0,9971,
scooby_state_402dfb|60|-1 2,1,3,2,0,0,1,1,2,0,0,6015,3920,3,1,9951,
scooby_state_402dfb|47|-1 1,1,3,2,1,1,0,2,2,0,1,5933,4001,2,0,9950,
scooby_state_402dc3|40|-3 9912,1,0,0,1,1,3,0,0,1,2,0,0,3,2,9926,
scooby_state_402dc3|6|-3 9898,0,0,0,2,1,0,1,0,0,2,1,0,0,3,9908,
scooby_state_402dc3|32|-4 9876,1,1,2,0,1,1,0,0,1,1,0,0,2,2,9888,
scooby_state_402dc3|16|-3 9858,2,2,3,2,1,0,1,0,3,0,2,1,2,1,9878,
scooby_state_402dc3|17|-3 9856,0,1,1,1,0,0,2,2,2,1,0,0,3,1,9870,
scooby_state_402dc3|47|-3 9840,1,2,0,1,1,1,1,1,4,2,0,1,0,1,9856,
scooby_state_402dc3|13|-4 9826,1,2,1,2,1,1,2,0,1,5,3,0,0,3,9848,
scooby_state_402dfb|31|-1 2,0,1,1,2,1,1,0,2,0,3,5812,3999,2,1,9827,
scooby_state_402dc3|33|-3 9807,1,2,3,2,0,2,2,1,0,1,0,1,2,3,9827,
scooby_state_402dc3|21|-3 9798,2,0,1,4,0,1,1,2,1,2,0,1,0,1,9814,
scooby_state_402dc3|37|-4 9783,1,0,1,2,1,2,2,1,5,0,0,2,0,1,9801,
scooby_state_402dfb|57|-2 1,3,1,0,3,1,2,4,0,2,0,8483,1296,1,0,9797,
scooby_state_402dc3|12|-4 9761,0,4,1,1,1,2,2,1,3,2,1,0,2,1,9782,
scooby_state_402dc3|24|-4 9748,2,1,0,1,4,1,2,1,2,0,2,2,3,2,9771,
scooby_state_402dc3|35|-4 9747,6,2,0,0,1,3,0,4,1,0,3,1,0,2,9770,
scooby_state_402dc3|11|-4 9735,0,0,1,2,4,0,1,0,0,1,2,0,0,0,9746,
scooby_state_402dc3|30|-4 9724,0,0,0,2,1,1,0,0,1,1,2,1,0,3,9736,
scooby_state_402dc3|9|-3 9707,1,1,1,3,0,1,1,2,1,0,1,2,1,2,9724,
scooby_state_402dc3|28|-4 9705,3,0,1,1,3,1,1,1,1,0,1,1,0,1,9720,
scooby_state_402dc3|19|-4 9700,1,3,0,1,1,3,1,1,1,3,1,1,0,2,9719,
scooby_state_402dc3|37|-3 9692,1,1,2,3,1,0,0,2,0,0,1,1,3,1,9708,
scooby_state_402dc3|34|-4 9690,1,0,1,1,2,0,2,0,2,3,0,1,0,3,9706,
scooby_state_402dc3|27|-3 9695,0,0,0,0,0,1,1,1,1,0,0,0,0,2,9701,
scooby_state_402dc3|26|-4 9644,3,2,2,1,0,0,0,2,2,1,1,2,1,0,9661,
scooby_state_402dc3|25|-3 9627,1,2,2,2,0,1,1,1,1,2,2,2,0,1,9645,
scooby_state_402dc3|7|-3 9632,2,0,3,0,1,0,0,0,1,1,5,0,0,0,9645,
scooby_state_402dc3|28|-3 9616,2,0,0,0,2,0,0,0,1,4,3,1,1,0,9630,
scooby_state_402dc3|19|-3 9604,0,2,1,2,3,1,0,2,1,1,0,0,0,0,9617,
scooby_state_402dc3|39|-3 9579,0,0,0,2,3,2,2,0,0,0,1,1,1,1,9592,
scooby_state_402dc3|29|-4 9568,2,1,3,1,1,2,2,1,0,0,3,2,2,2,9590,
scooby_state_402dc3|9|-4 9570,3,1,3,0,2,0,1,0,3,1,0,1,0,1,9586,
scooby_state_402dc3|35|-3 9561,3,0,0,0,0,0,1,1,4,0,1,0,0,1,9572,
scooby_state_402dc3|8|-4 9544,0,0,1,4,1,2,3,1,3,0,5,2,2,1,9569,
scooby_state_402dc3|5|-3 9543,0,1,0,1,3,1,2,2,0,1,3,3,0,0,9560,
scooby_state_402dc3|14|-4 9529,2,1,2,1,1,0,0,2,2,1,0,1,1,3,9546,
scooby_state_402dc3|34|-3 9516,1,2,0,0,1,2,2,1,3,0,1,0,0,3,9532,
scooby_state_402dc3|10|-4 9501,1,0,1,1,1,2,1,1,2,1,2,3,0,1,9518,
scooby_state_402dc3|2|-3 9502,0,2,1,1,1,1,0,1,2,1,2,1,0,1,9516,
scooby_state_402dc3|0|-4 9448,0,1,1,1,0,0,0,0,2,0,2,2,1,3,9461,
scooby_state_402dc3|12|-3 9428,3,0,1,2,0,1,4,2,0,0,2,2,2,1,9448,
scooby_state_402dc3|39|-4 9421,0,1,1,0,2,5,2,1,2,1,3,0,1,0,9440,
scooby_state_402dc3|22|-4 9424,2,0,2,2,0,2,0,0,1,0,1,2,1,2,9439,
scooby_state_402dc3|16|-4 9425,0,3,1,1,1,0,0,1,3,0,0,0,2,1,9438,
scooby_state_402dfb|62|-1 1,1,2,1,1,0,3,2,1,3,0,5820,3602,0,1,9438,
scooby_state_402dc3|1|-3 9402,1,2,0,1,1,2,1,1,2,0,1,0,2,0,9416,
scooby_state_402dc3|6|-4 9400,1,1,3,2,0,0,1,0,0,0,1,0,0,0,9409,
scooby_state_402dc3|25|-4 9394,1,1,2,0,1,2,0,2,3,0,2,0,0,1,9409,
scooby_state_402dc3|8|-3 9358,3,2,1,0,1,2,1,1,1,1,3,2,0,2,9378,
scooby_state_402dc3|4|-4 9337,1,1,1,0,0,1,1,0,1,1,3,1,0,4,9352,
scooby_state_402dc3|11|-3 9325,0,1,0,1,0,0,0,2,1,0,0,2,3,1,9336,
scooby_state_402dc3|0|-3 9297,1,0,2,0,2,2,1,2,0,1,0,1,3,0,9312,
scooby_state_402dc3|3|-3 9278,1,2,1,4,0,2,1,0,3,1,0,1,1,0,9295,
scooby_state_402dc3|32|-3 9277,0,0,1,0,1,0,1,1,1,1,1,1,2,1,9288,
scooby_state_402dc3|27|-4 9249,1,3,2,1,0,2,1,0,3,1,3,3,1,0,9270,
scooby_state_402dc3|17|-4 9206,1,2,4,2,2,0,0,2,0,1,0,1,3,1,9225,
scooby_state_402dc3|1|-4 9197,2,0,1,1,0,0,3,2,0,1,2,1,0,0,9210,
scooby_state_402dc3|18|-3 9182,1,1,3,1,0,1,1,0,1,3,1,4,3,0,9202,
scooby_state_402dc3|38|-3 9190,0,0,0,1,1,0,3,1,0,3,0,0,0,2,9201,
scooby_state_402dc3|4|-3 9176,0,0,2,1,1,3,1,1,2,4,0,2,0,1,9194,
scooby_state_402dc3|38|-4 9129,1,1,0,1,0,1,2,1,0,3,1,1,4,2,9147,
scooby_state_402dc3|33|-4 9017,0,2,2,0,3,1,0,3,0,1,0,3,1,1,9034,
scooby_state_402dc3|20|-3 8899,1,1,1,0,3,4,1,1,1,0,2,0,1,4,8919,
scooby_state_402dc3|36|-3 8874,0,2,1,3,4,1,1,1,0,1,2,0,0,2,8892,
scooby_state_402dc3|31|-3 8625,2,0,0,1,1,1,1,0,1,1,1,2,0,2,8638,
scooby_state_402dc3|15|-3 8508,0,0,4,0,0,3,1,0,2,0,0,0,4,0,8522,
scooby_state_402dc7|63|0 7,1,2,3,2,1,2,4,1,1,0,3048,4707,0,0,7779,
scooby_state_402dcb|1|-3 7,1,1,0,0,0,0,1,2,0,2,149,6973,0,0,7136,
scooby_state_402dcb|2|1 2,0,0,1,0,0,1,2,1,2,1,2,6524,0,1,6537,
scooby_state_402dcb|3|-3 14,3,1,0,0,1,1,0,0,1,1,152,6244,0,2,6420,
scooby_state_402dcb|3|1 1,2,0,1,2,2,3,4,2,0,1,1,6229,1,1,6250,
scooby_state_402dcb|1|1 3,2,3,2,1,0,0,2,0,2,0,1,6174,1,1,6192,
scooby_state_402dcb|4|4 66,0,2,0,2,0,1,1,0,1,1,13,5877,0,0,5964,
scooby_state_402dcb|2|-3 1,0,0,0,0,3,2,1,0,1,0,11,5941,2,0,5962,
scooby_state_402dcb|6|4 59,0,1,0,2,0,3,1,1,0,1,16,5569,1,0,5654,
scooby_state_403083|55|1 1763,1,5,2,3,3,2,5,4,5,1,5,3,2,3831,5635,
scooby_state_402dcb|4|-3 6,2,1,0,0,0,1,0,0,0,0,203,5271,0,0,5484,
scooby_state_402dcb|5|-3 3,0,1,0,0,1,0,1,0,0,0,49,5406,0,2,5463,
scooby_state_402dcb|7|-3 10,0,3,1,1,1,0,2,0,1,0,166,5220,2,1,5408,
scooby_state_402dcb|6|-3 3,0,1,1,1,1,1,0,0,1,1,25,5367,0,1,5403,
scooby_state_402dc7|62|-1 31,1,1,1,2,0,2,0,2,1,0,2266,3038,3,0,5348,
scooby_state_402dcb|5|4 23,1,0,1,0,0,2,1,0,2,0,3,5277,2,0,5312,
scooby_state_403083|7|1 1673,3,7,3,3,4,1,0,3,4,2,3,2,2,3543,5253,
scooby_state_402dcb|0|-7 0,3,0,1,0,3,2,1,1,0,4,0,5176,0,0,5191,
scooby_state_403083|48|1 1695,2,4,5,5,1,6,6,3,6,5,6,5,5,3241,4995,
scooby_state_403083|35|1 1723,0,4,1,0,2,2,0,1,0,1,0,0,1,3215,4950,
scooby_state_402dcb|63|8 14,2,0,0,0,1,0,1,4,0,2,0,4677,1,0,4702,
scooby_state_403083|33|1 1592,1,5,2,1,2,3,2,2,3,1,4,4,4,3022,4648,
scooby_state_402dcb|63|1 1,0,1,0,0,0,1,2,2,4,2,2,4627,1,0,4643,
scooby_state_402dc7|60|-1 31,1,0,1,0,0,0,2,1,0,1,1889,2657,2,0,4585,
scooby_state_402dcb|8|-3 6,1,0,1,1,0,0,0,0,1,0,39,4525,1,1,4576,
scooby_state_403083|38|1 1685,1,2,2,2,0,1,0,0,0,0,0,2,1,2816,4512,
scooby_state_402dc7|47|-1 26,0,0,0,1,0,0,0,0,1,2,1996,2476,2,1,4505,
scooby_state_402dc7|61|-1 14,1,0,0,1,1,3,1,1,1,0,1897,2580,1,2,4503,
scooby_state_402dc7|29|-1 20,0,0,1,1,0,0,0,1,0,1,1898,2532,3,1,4458,
scooby_state_402dc7|1|-1 23,1,1,0,0,0,0,0,0,1,1,1971,2458,0,1,4457,
scooby_state_402dcb|61|1 0,2,0,2,3,2,0,1,2,0,1,1,4402,1,1,4418,
scooby_state_402dcb|3|-7 0,0,0,1,0,0,1,0,0,1,0,0,4366,0,0,4369,
scooby_state_402dc3|52|-11 4351,1,0,1,0,3,1,1,0,0,1,0,0,1,0,4360,
scooby_state_403083|36|1 1678,4,6,4,1,3,0,2,5,1,1,5,4,1,2618,4333,
scooby_state_403083|26|1 1707,0,2,1,1,1,0,0,1,0,0,4,1,2,2590,4310,
scooby_state_402dcb|58|-3 3,1,0,0,0,0,1,0,0,0,0,58,4227,0,1,4291,
scooby_state_402dc7|49|-1 19,0,0,1,0,0,1,0,0,0,1,1966,2300,1,1,4290,
scooby_state_403083|29|1 1619,0,1,3,2,1,1,0,0,0,1,3,6,2,2648,4287,
scooby_state_402dcb|62|1 2,2,1,1,0,0,2,1,0,0,0,1,4247,0,2,4259,
scooby_state_402dcb|59|-3 1,1,0,1,0,1,1,0,0,2,0,14,4203,0,1,4225,
scooby_state_402dcb|62|8 40,2,1,2,1,0,2,1,0,0,1,2,4154,1,0,4207,
scooby_state_402dcb|14|-3 0,0,0,0,0,1,0,0,0,0,2,79,4102,0,1,4185,
scooby_state_402dcb|10|8 43,0,0,0,1,0,2,1,0,1,0,1,4123,2,4,4178,
scooby_state_402dc7|7|-1 22,2,0,0,0,0,0,0,0,0,0,1860,2289,1,1,4175,
scooby_state_402dc7|54|-1 20,2,0,1,1,0,0,1,0,0,1,1926,2218,1,0,4171,
scooby_state_402dcb|9|8 12,1,0,0,1,0,0,0,0,1,0,0,4146,1,0,4162,
scooby_state_403083|31|1 1605,3,2,0,1,3,2,1,0,1,1,1,2,0,2539,4161,
scooby_state_402dc7|17|-1 24,0,2,1,0,1,0,1,0,1,0,1867,2253,2,1,4153,
scooby_state_402dc7|15|-1 22,1,2,1,1,0,1,0,0,0,0,1864,2242,2,1,4137,
scooby_state_402dcb|1|-7 1,0,0,0,0,0,0,0,0,0,2,0,4131,0,0,4134,
scooby_state_402dc7|30|-1 24,0,2,0,0,1,0,2,1,1,1,1899,2196,3,0,4130,
scooby_state_402dc3|51|-11 4124,0,0,1,0,0,0,1,0,0,0,1,1,1,0,4129,
scooby_state_402dc7|31|-1 31,0,0,0,0,0,0,0,0,0,1,1858,2232,1,1,4124,
scooby_state_402dcb|60|-3 2,1,0,0,0,2,0,1,3,0,1,25,4084,0,1,4120,
scooby_state_402dc7|45|-1 22,1,1,1,2,1,0,1,0,1,1,1870,2210,1,0,4112,
scooby_state_402dcb|10|-3 6,1,0,0,1,0,3,1,0,0,1,45,4043,1,1,4103,
scooby_state_402dcb|15|-3 3,0,0,0,0,0,0,0,0,0,0,22,4076,1,0,4102,
scooby_state_403083|13|1 1543,2,0,1,1,0,0,1,3,0,0,2,2,1,2491,4047,
scooby_state_402dc3|36|-11 4024,1,0,0,0,0,0,0,0,1,0,0,0,0,0,4026,
scooby_state_402dcb|11|-3 0,0,2,2,2,1,0,0,0,0,0,45,3962,0,1,4015,
scooby_state_402dc3|20|-11 4002,1,0,0,1,1,0,0,0,0,0,0,1,0,1,4007,
scooby_state_403083|18|1 1606,1,2,2,2,2,1,0,1,1,1,4,2,2,2378,4005,
scooby_state_403083|11|1 1555,1,0,2,1,0,0,1,0,2,0,2,0,3,2420,3987,
scooby_state_402dc7|44|-1 22,0,2,0,0,2,0,1,0,1,0,1898,2056,2,0,3984,
scooby_state_403083|22|1 1650,0,2,0,1,0,1,0,1,0,1,1,0,0,2326,3983,
scooby_state_403083|51|1 1540,0,1,1,0,1,2,1,1,1,0,5,1,0,2424,3978,
scooby_state_403083|54|1 1635,2,1,2,2,3,2,3,3,4,1,4,3,3,2289,3957,
scooby_state_403083|42|1 1785,2,3,3,5,5,4,3,0,2,4,4,3,2,2130,3955,
scooby_state_402dcb|2|-7 0,0,0,0,0,0,0,0,1,0,0,0,3950,1,0,3952,
scooby_state_402dcb|9|-3 0,0,0,0,0,0,0,1,1,0,1,4,3928,0,1,3936,
scooby_state_402dc7|33|-1 21,2,1,0,1,0,1,0,0,0,0,1828,2075,0,0,3929,
scooby_state_402dcb|7|4 63,1,0,0,0,2,1,2,0,0,0,3,3851,1,0,3924,
scooby_state_402dc7|55|-1 22,0,1,0,0,0,2,0,0,2,1,1811,2080,0,1,3920,
scooby_state_403083|45|1 1610,4,3,5,2,2,4,1,2,5,1,5,0,2,2272,3918,
scooby_state_402dcb|8|8 49,1,0,0,0,1,0,0,2,1,0,0,3849,1,0,3904,
scooby_state_402dc7|13|-1 20,0,0,1,0,0,0,0,1,1,0,1792,2086,2,1,3904,
scooby_state_402dc7|12|-1 22,1,0,0,0,2,0,0,0,0,0,1864,2007,3,2,3901,
scooby_state_403083|3|1 1599,0,4,0,1,1,1,2,0,1,0,4,3,0,2276,3892,
scooby_state_402dc7|28|-1 23,0,1,1,1,0,0,0,0,1,0,1840,2008,2,5,3882,
scooby_state_402dc7|23|-1 23,0,2,1,2,0,0,1,1,1,1,1769,2078,0,1,3880,
scooby_state_403083|58|1 1653,2,2,1,1,1,1,1,0,1,0,1,2,2,2206,3874,
scooby_state_403083|61|1 1540,1,1,2,0,1,0,0,1,0,0,7,2,0,2301,3856,
scooby_state_402dcb|17|-3 2,0,0,1,1,1,0,0,1,0,0,68,3781,0,0,3855,
scooby_state_403083|15|1 1619,1,4,1,3,1,3,0,0,0,0,0,1,0,2221,3854,
scooby_state_403083|47|1 1564,0,2,0,0,0,1,1,1,1,2,3,1,2,2275,3853,
scooby_state_403083|5|1 1559,1,4,1,2,0,1,0,0,1,1,1,3,1,2269,3844,
scooby_state_402dc3|49|-11 3825,0,2,0,0,0,1,1,1,1,0,0,0,1,1,3833,
scooby_state_402dc7|57|-1 15,0,0,0,0,1,0,1,0,1,0,1804,2006,0,0,3828,
scooby_state_402dcb|46|-3 0,1,0,1,1,0,0,0,1,1,0,5,3816,1,0,3827,
scooby_state_402dc7|14|-1 18,0,0,1,1,1,0,0,1,0,0,1788,2005,2,0,3817,
scooby_state_403083|49|1 1578,0,0,1,1,0,1,2,0,0,1,2,2,1,2227,3816,
scooby_state_402dc7|52|-1 34,1,1,2,1,0,1,0,0,0,0,1874,1896,3,1,3814,
scooby_state_403083|41|1 1603,3,1,0,2,0,0,2,0,1,1,1,1,0,2197,3812,
scooby_state_402dcb|30|-3 8,0,1,1,0,2,0,2,1,0,1,57,3738,0,1,3812,
scooby_state_403083|56|1 1584,0,1,3,1,2,0,0,1,1,0,1,1,0,2214,3809,
scooby_state_402dc7|62|0 1,0,1,0,0,0,2,0,0,0,0,1219,2584,0,0,3807,
scooby_state_403083|63|1 1522,2,5,1,2,1,1,1,0,1,0,1,2,0,2266,3805,
scooby_state_403083|44|1 1668,1,1,0,0,3,2,2,1,1,1,0,2,2,2119,3803,
scooby_state_403083|17|1 1592,1,2,2,3,0,0,0,0,0,1,2,3,1,2163,3770,
scooby_state_403083|16|1 1587,1,1,0,3,2,0,0,0,0,2,3,0,2,2167,3768,
scooby_state_403083|10|1 1660,1,2,0,0,0,2,0,3,0,1,2,1,3,2089,3764,
scooby_state_402dcb|60|1 0,1,0,2,0,1,0,2,3,2,0,0,3748,0,0,3759,
scooby_state_402dc7|58|-1 17,2,0,1,1,0,0,0,2,0,0,1758,1975,1,0,3757,
scooby_state_403083|4|1 1643,1,3,2,4,1,4,3,1,2,3,4,1,0,2078,3750,
scooby_state_403083|60|1 1619,2,1,2,2,2,0,1,0,0,0,1,3,0,2112,3745,
scooby_state_402dc7|9|-1 25,0,0,1,1,0,1,0,0,2,1,1794,1907,2,1,3735,
scooby_state_403083|37|1 1588,2,3,1,1,1,1,1,0,0,0,1,0,0,2136,3735,
scooby_state_403083|50|1 1596,2,1,0,0,0,2,1,0,1,3,3,2,2,2121,3734,
scooby_state_403083|43|1 1589,6,3,2,2,2,0,4,2,2,2,1,1,4,2111,3731,
scooby_state_402dc7|20|-1 19,2,0,0,1,1,0,0,0,0,0,1799,1900,0,0,3722,
scooby_state_403083|6|1 1603,1,3,2,0,1,0,1,0,0,2,2,0,0,2105,3720,
scooby_state_402dc7|27|-1 25,0,0,0,1,1,0,2,0,1,0,1847,1835,2,1,3715,
scooby_state_403083|9|1 1583,1,2,1,0,2,2,2,3,1,2,2,2,4,2105,3712,
scooby_state_403083|30|1 1605,3,3,2,3,1,2,0,2,0,2,5,5,1,2077,3711,
scooby_state_403083|1|1 1544,1,1,0,1,2,2,0,0,0,0,1,1,1,2150,3704,
scooby_state_402dc7|43|-1 29,0,1,1,0,0,1,0,1,0,0,1771,1899,0,0,3703,
scooby_state_403083|25|1 1542,2,1,0,2,3,1,1,0,1,1,0,0,1,2147,3702,
scooby_state_402dc7|38|-1 19,0,0,0,0,4,0,0,1,0,0,1783,1888,3,1,3699,
scooby_state_403083|8|1 1606,1,1,0,3,3,1,1,1,1,0,1,1,0,2078,3698,
scooby_state_402dcb|31|-3 0,1,1,0,1,0,2,0,1,0,0,49,3643,0,0,3698,
scooby_state_403083|19|1 1550,1,1,2,2,0,1,1,0,1,0,2,2,0,2131,3694,
scooby_state_403083|39|1 1505,1,0,1,1,0,0,0,2,0,1,2,0,0,2178,3691,
scooby_state_403083|24|1 1546,0,4,3,2,3,3,2,2,3,2,2,3,2,2111,3688,
scooby_state_403083|32|1 1619,0,0,0,0,0,1,1,0,0,2,0,1,1,2060,3685,
scooby_state_402dc7|39|-1 21,0,1,0,1,1,2,0,1,0,0,1798,1856,2,0,3683,
scooby_state_402dc7|41|-1 18,0,1,1,0,0,0,2,1,1,0,1741,1910,0,0,3675,
scooby_state_402dc7|59|-2 0,0,0,0,1,0,0,1,2,2,1,1231,2436,0,1,3675,
scooby_state_402dcb|37|-3 4,0,0,0,0,0,1,2,0,1,1,52,3609,1,0,3671,
scooby_state_402dc3|15|-11 3656,0,0,0,0,1,0,3,0,1,0,0,1,2,0,3664,
scooby_state_403083|21|1 1555,1,5,1,2,0,6,1,1,2,1,6,7,1,2073,3662,
scooby_state_403083|23|1 1509,1,5,1,0,1,3,3,0,1,1,1,0,1,2125,3652,
scooby_state_403083|20|1 1564,0,1,0,2,1,1,0,1,0,1,0,0,0,2080,3651,
scooby_state_402dc7|18|-2 1,0,1,0,1,1,1,0,0,2,1,1101,2529,0,0,3638,
scooby_state_402dcb|41|-3 3,0,1,0,1,0,0,0,2,0,0,65,3563,0,0,3635,
scooby_state_402dcb|47|-3 7,1,0,1,1,0,1,0,1,0,1,51,3568,0,2,3634,
scooby_state_402dcb|25|-3 2,0,0,1,1,0,0,0,0,0,0,27,3598,0,0,3629,
scooby_state_403083|52|1 1588,0,4,0,1,2,3,1,1,1,1,1,0,3,2020,3626,
scooby_state_403083|59|1 1548,1,1,1,1,3,1,2,1,1,0,3,2,4,2057,3626,
scooby_state_403083|53|1 1568,0,0,0,0,0,2,1,0,0,0,1,0,0,2048,3620,
scooby_state_402dc3|33|-11 3607,0,0,1,0,2,1,0,0,3,3,0,1,0,0,3618,
scooby_state_402dc7|10|-1 24,0,0,1,1,3,0,1,2,1,0,1763,1818,2,0,3616,
scooby_state_402dc3|4|-11 3602,2,1,1,1,2,0,0,0,0,0,0,1,0,1,3611,
scooby_state_402dc7|56|-1 15,0,0,0,0,0,0,1,0,1,0,1760,1832,1,1,3611,
scooby_state_403083|40|1 1601,2,0,0,0,0,0,0,0,0,2,1,1,0,1996,3603,
scooby_state_402dc7|46|-1 16,0,0,0,1,0,0,1,1,2,0,1664,1913,1,0,3599,
scooby_state_403083|57|1 1524,1,0,0,1,1,2,0,1,1,2,3,1,2,2057,3596,
scooby_state_402dc7|25|-1 20,2,1,0,1,2,0,0,0,0,0,1788,1777,2,0,3593,
scooby_state_402dc7|34|-2 1,1,0,3,1,1,1,0,0,2,1,1169,2402,0,0,3582,
scooby_state_402dc7|6|-1 27,1,1,0,0,0,0,1,0,0,0,1650,1893,2,0,3575,
scooby_state_402dc3|47|-11 3562,0,0,0,0,0,0,0,0,0,0,0,0,0,0,3562,
scooby_state_402dcb|22|-3 0,0,3,1,1,0,1,0,1,0,1,12,3540,0,0,3560,
scooby_state_403083|14|1 1599,0,0,1,0,0,1,0,1,0,0,4,1,1,1949,3557,
scooby_state_403083|12|1 1615,1,1,1,0,0,2,0,3,0,0,1,1,0,1929,3554,
scooby_state_403083|27|1 1530,1,0,0,0,2,2,1,2,0,0,0,1,2,2004,3545,
scooby_state_402dcb|61|8 71,0,0,0,0,0,0,1,0,0,0,0,3467,0,1,3540,
scooby_state_402dc7|22|-1 15,0,1,1,0,0,0,1,0,1,0,1679,1839,1,0,3538,
scooby_state_402dc7|0|-1 18,0,1,0,1,0,1,0,1,1,1,1706,1804,0,0,3534,
scooby_state_402dc7|36|-1 18,0,0,0,1,0,0,1,2,0,1,1797,1712,0,1,3533,
scooby_state_402dc7|26|-1 15,1,0,1,0,0,1,0,0,1,0,1706,1804,1,2,3532,
scooby_state_402dc3|39|-11 3522,1,0,1,0,0,1,0,2,0,1,0,1,0,2,3531,
scooby_state_402dc3|9|-11 3517,0,0,0,1,1,0,0,1,0,0,1,0,1,1,3523,
scooby_state_403083|2|1 1557,0,3,2,0,2,2,1,3,0,1,3,2,2,1945,3523,
scooby_state_402dc3|12|-11 3512,0,0,0,0,0,3,0,0,0,2,0,1,0,0,3518,
scooby_state_403083|46|1 1586,0,1,0,0,2,3,1,1,1,0,1,0,1,1920,3517,
scooby_state_403083|28|1 1621,0,1,0,0,3,1,0,2,2,0,1,1,1,1869,3502,
scooby_state_402dc7|25|-2 0,1,0,1,0,0,0,1,0,0,0,1181,2297,1,0,3482,
scooby_state_402dcb|43|-3 1,1,0,0,0,0,1,0,1,3,1,8,3462,1,1,3480,
scooby_state_402dc7|50|-2 1,0,0,1,1,0,2,0,0,0,0,1136,2337,0,1,3479,
scooby_state_402dcb|33|-3 0,0,0,2,2,0,0,0,1,0,0,11,3459,0,1,3476,
scooby_state_402dc7|2|-2 0,1,1,0,1,2,0,0,0,2,2,1116,2349,1,0,3475,
scooby_state_402dc3|2|-11 3468,0,0,0,2,0,0,0,0,0,1,1,1,0,0,3473,
scooby_state_402dc3|37|-11 3454,0,0,1,0,0,1,0,1,0,0,0,1,0,0,3458,
scooby_state_402dc3|16|-11 3455,0,0,0,0,1,0,0,0,0,0,0,0,0,1,3457,
scooby_state_402dc3|26|-11 3447,1,1,1,0,0,1,1,0,0,0,0,0,0,0,3452,
scooby_state_402dc7|48|-1 24,0,1,0,3,0,1,2,2,1,0,1687,1729,0,0,3450,
scooby_state_403083|34|1 1584,1,2,2,1,1,0,0,1,0,1,0,0,1,1856,3450,
scooby_state_402dc3|19|-11 3431,1,0,2,0,3,1,2,0,0,1,0,1,1,0,3443,
scooby_state_402dc3|6|-11 3428,0,2,1,0,0,1,2,1,1,0,1,0,0,0,3437,
scooby_state_402dc3|46|-11 3429,2,0,0,0,0,0,1,0,0,0,0,0,0,0,3432,
scooby_state_402dc3|27|-11 3411,2,2,0,0,1,0,1,3,0,1,0,0,0,0,3421,
scooby_state_402dc7|8|-1 18,0,1,0,0,0,1,1,0,0,0,1716,1681,1,2,3421,
scooby_state_402dc3|1|-11 3412,0,1,0,0,0,0,0,1,1,0,0,0,0,1,3416,
scooby_state_402dc3|41|-11 3404,0,0,1,0,2,0,0,0,1,1,1,0,1,1,3412,
scooby_state_402dc3|3|-11 3395,1,0,2,1,1,0,0,0,1,0,0,0,0,0,3401,
scooby_state_402dc3|18|-11 3395,0,1,1,0,0,1,0,0,0,0,0,0,0,0,3398,
scooby_state_402dc7|42|-1 21,0,2,0,0,0,2,0,0,0,0,1764,1596,1,0,3386,
scooby_state_402dc3|29|-11 3378,0,2,0,1,0,0,0,1,0,0,0,0,0,0,3382,
scooby_state_402dcb|24|-3 2,1,1,0,0,0,0,1,1,0,0,67,3303,2,1,3379,
scooby_state_402dcb|53|-3 1,0,0,0,1,1,0,0,0,0,0,3,3371,0,0,3377,
scooby_state_402dc7|16|-1 21,0,0,1,0,1,1,0,0,1,1,1741,1608,0,0,3375,
scooby_state_402dc3|30|-11 3354,0,1,1,0,0,0,2,1,0,0,0,0,0,0,3359,
scooby_state_402dcb|51|-3 1,0,0,2,0,0,0,0,0,1,2,85,3262,3,2,3358,
scooby_state_403083|62|1 1513,0,0,0,0,3,2,1,2,1,0,1,0,1,1833,3357,
scooby_state_402dcb|36|-3 0,0,0,0,1,1,0,0,0,0,0,2,3345,0,0,3349,
scooby_state_402dc3|50|-11 3340,0,0,0,1,1,1,0,2,2,0,0,1,0,1,3349,
scooby_state_402dc7|59|-1 20,0,0,0,0,0,0,0,0,0,1,1723,1600,1,1,3346,
scooby_state_402dcb|40|-3 5,1,0,0,0,0,2,0,1,1,0,43,3291,0,0,3344,
scooby_state_402dc3|34|-11 3336,1,0,0,0,0,0,0,1,0,0,1,1,1,1,3342,
scooby_state_402dc3|32|-11 3329,0,1,0,0,2,0,0,0,0,1,1,0,2,0,3336,
scooby_state_402dcb|56|-3 0,0,0,1,0,0,2,0,0,0,1,2,3327,0,1,3334,
scooby_state_402dcb|26|-3 3,1,0,0,0,0,0,0,0,0,2,4,3323,0,0,3333,
scooby_state_402dc3|28|-11 3316,0,1,0,0,1,0,0,0,0,0,1,1,0,1,3321,
scooby_state_402dc3|31|-11 3314,0,0,0,2,0,0,2,0,0,0,0,1,1,1,3321,
scooby_state_402dc7|32|-1 29,0,0,0,0,1,0,1,0,0,2,1679,1604,1,1,3318,
scooby_state_402dc3|17|-11 3309,0,0,1,1,0,0,0,0,1,0,0,0,0,0,3312,
scooby_state_402dc3|42|-11 3311,0,0,0,0,1,0,0,0,0,0,0,0,0,0,3312,
scooby_state_402dcb|38|-3 0,0,1,0,1,1,0,0,0,0,0,54,3252,1,0,3310,
scooby_state_402dc3|38|-11 3303,0,1,1,0,1,1,0,0,0,1,0,0,0,0,3308,
scooby_state_402dc3|25|-11 3300,0,1,0,0,0,2,0,0,0,0,0,1,2,0,3306,
scooby_state_402dc3|43|-11 3292,1,1,1,0,1,0,0,2,0,0,0,0,1,1,3300,
scooby_state_402dcb|54|-3 1,0,0,0,0,0,1,0,0,0,0,46,3250,1,0,3299,
scooby_state_402dc3|21|-11 3286,1,1,0,2,1,0,1,0,0,0,1,0,0,0,3293,
scooby_state_402dcb|57|-3 2,1,0,0,1,1,0,0,2,0,1,37,3240,0,1,3286,
scooby_state_402dc7|18|-1 27,1,0,0,1,0,0,0,0,0,0,1764,1485,1,1,3280,
scooby_state_402dcb|52|-3 3,1,0,0,2,0,0,1,0,0,0,30,3239,2,0,3278,
scooby_state_402dc7|61|-2 0,0,0,0,0,1,0,1,0,0,1,1126,2148,0,0,3277,
scooby_state_402dc3|44|-11 3266,0,0,1,1,0,3,0,1,1,0,0,0,0,0,3273,
scooby_state_402dc3|5|-11 3261,0,2,0,0,0,0,0,1,2,1,0,0,0,0,3267,
scooby_state_402dc3|8|-11 3252,0,0,0,0,0,0,0,1,0,0,1,0,0,0,3254,
scooby_state_402dc3|48|-11 3249,0,0,0,0,1,0,1,0,1,0,0,0,1,0,3253,
scooby_state_402dc3|10|-11 3241,0,0,0,0,1,1,1,0,2,1,0,0,0,0,3247,
scooby_state_402dc7|54|-2 0,1,0,1,0,0,0,0,0,0,0,1039,2192,0,1,3234,
scooby_state_402dcb|13|8 27,0,0,1,1,0,0,1,1,0,0,0,3193,0,1,3225,
scooby_state_402dcb|13|11 14,0,0,1,0,0,0,0,0,1,1,0,3203,1,0,3221,
scooby_state_402dc7|40|-1 17,1,0,0,2,0,0,0,0,0,0,1645,1552,0,0,3217,
scooby_state_402dc7|60|-2 1,2,1,0,0,1,0,1,0,1,0,1067,2136,1,0,3211,
scooby_state_402dc7|21|-2 0,1,0,0,0,2,0,1,1,1,1,1064,2139,0,0,3210,
scooby_state_402dc7|57|-2 0,1,1,0,0,0,0,1,0,0,0,1114,2087,3,0,3207,
scooby_state_402dc7|53|-1 16,0,0,0,2,0,1,0,0,0,0,1677,1505,1,0,3202,
scooby_state_402dc3|11|-11 3194,1,0,0,0,3,0,0,2,0,1,0,0,0,0,3201,
scooby_state_402dcb|28|-3 5,0,0,1,0,0,2,0,0,1,0,40,3146,2,0,3197,
scooby_state_402dcb|26|8 7,0,0,0,2,0,0,0,0,1,0,0,3187,0,0,3197,
scooby_state_402dc7|11|-1 16,0,0,0,0,0,1,0,0,0,0,1712,1457,0,0,3186,
scooby_state_402dc7|21|-1 21,0,0,0,0,1,0,1,0,0,0,1621,1539,0,0,3183,
scooby_state_402dc7|24|-1 24,1,2,0,2,0,1,0,0,0,0,1704,1440,3,0,3177,
scooby_state_402dcb|21|-3 2,0,1,3,1,0,1,0,0,0,0,54,3111,0,1,3174,
scooby_state_402dc7|39|-2 0,0,1,0,0,1,0,0,1,0,0,1133,2034,1,0,3171,
scooby_state_402dc3|23|-11 3168,0,0,0,1,0,0,0,0,2,0,0,0,0,0,3171,
scooby_state_402dc3|35|-11 3161,0,0,1,0,1,0,1,2,1,0,0,0,0,1,3168,
scooby_state_402dcb|42|8 27,0,2,2,1,1,0,0,0,0,0,2,3131,0,1,3167,
scooby_state_402dc3|40|-11 3138,0,0,1,2,0,1,0,1,0,0,1,1,0,1,3146,
scooby_state_402dcb|12|-3 0,0,1,0,0,0,2,1,0,0,0,3,3132,0,2,3141,
scooby_state_402dc7|11|-2 1,0,0,1,2,0,1,0,0,0,0,1023,2101,1,0,3130,
scooby_state_402dc7|5|-2 2,1,0,0,0,0,0,2,1,0,2,1094,2021,0,0,3123,
scooby_state_402dc7|50|-1 19,0,0,0,1,1,2,0,0,1,0,1715,1384,0,0,3123,
scooby_state_402dcb|4|-7 0,0,0,1,0,0,1,0,0,0,0,0,3118,1,1,3122,
scooby_state_402dcb|12|11 5,0,0,0,0,1,0,1,1,0,1,2,3109,0,0,3120,
scooby_state_402dcb|35|-3 6,1,0,1,0,0,0,1,0,0,0,44,3064,0,0,3117,
scooby_state_402dcb|42|-3 1,1,0,1,1,1,2,0,0,0,1,22,3086,1,0,3117,
scooby_state_402dc3|0|-11 3110,0,1,0,0,0,1,0,0,1,1,0,0,1,0,3115,
scooby_state_402dc7|2|-1 16,1,2,0,2,0,0,2,1,0,0,1660,1425,1,0,3110,
scooby_state_402dc7|4|-1 20,0,1,0,0,0,2,0,0,0,0,1637,1447,1,0,3108,
scooby_state_402dcb|13|-3 5,1,0,0,1,0,0,0,0,0,0,39,3059,0,0,3105,
scooby_state_402dc7|37|-1 25,1,1,1,0,0,1,3,0,0,0,1655,1416,1,0,3104,
scooby_state_402dc7|46|-2 2,1,1,0,0,0,0,0,0,0,0,1148,1947,0,1,3100,
scooby_state_402dcb|27|-3 5,0,1,0,0,0,0,0,0,1,0,39,3051,0,0,3097,
scooby_state_402dc3|13|-11 3081,1,0,0,2,0,0,0,1,0,0,0,1,0,1,3087,
scooby_state_402dc7|37|-2 0,0,1,0,2,0,1,0,0,0,0,1106,1975,0,0,3085,
scooby_state_402dc3|22|-11 3081,1,0,0,0,0,0,1,0,0,0,0,0,0,0,3083,
scooby_state_402dc7|49|-2 0,0,2,0,1,1,1,1,0,2,1,1137,1929,0,0,3075,
scooby_state_402dc7|45|-2 0,1,2,1,0,2,0,0,2,0,0,1133,1932,0,1,3074,
scooby_state_402dc7|3|-2 1,0,0,0,0,1,0,0,0,0,1,985,2082,0,1,3071,
scooby_state_402dcb|47|8 25,0,1,1,1,1,1,0,1,0,0,1,3032,0,2,3066,
scooby_state_402dc7|3|-1 17,0,0,1,0,0,0,0,0,0,0,1695,1329,1,1,3044,
scooby_state_402e18|54|0 386,1,0,0,0,0,1,0,0,0,0,1036,1612,0,0,3036,
scooby_state_402dc7|9|-2 3,0,0,2,0,0,0,0,1,2,0,972,2049,0,0,3029,
scooby_state_402dc7|35|-2 4,1,0,2,0,0,0,0,0,1,0,1062,1953,0,0,3023,
scooby_state_402dcb|58|8 38,0,0,0,0,0,2,0,0,0,0,0,2982,0,0,3022,
scooby_state_402dcb|18|-3 4,1,0,0,2,0,0,1,0,0,0,43,2963,0,0,3014,
scooby_state_402dc7|34|-1 21,0,0,1,0,0,0,2,0,0,0,1617,1368,0,0,3009,
scooby_state_402dcb|50|-3 4,0,0,0,0,1,1,1,0,0,0,37,2954,0,0,2998,
scooby_state_402dcb|39|-3 0,0,1,1,0,0,0,2,0,0,0,4,2987,2,0,2997,
scooby_state_402dcb|49|-3 1,0,0,0,0,0,0,1,0,0,1,11,2980,0,0,2994,
scooby_state_402dc7|58|-2 1,0,0,0,1,0,0,2,0,0,0,1037,1952,0,0,2993,
scooby_state_402dcb|14|8 35,0,0,0,0,1,0,0,2,0,0,1,2953,1,0,2993,
scooby_state_402dcb|59|1 3,0,0,0,0,0,0,1,0,1,0,2,2970,0,1,2978,
scooby_state_402dc7|14|-2 1,0,0,0,0,0,1,0,1,0,0,971,1998,0,0,2972,
scooby_state_402dcb|55|-3 2,1,0,1,0,0,0,0,0,1,0,40,2926,1,0,2972,
scooby_state_402dcb|57|1 1,0,0,0,0,2,2,2,1,1,1,0,2960,0,0,2970,
scooby_state_402dc3|14|-11 2956,0,0,0,1,1,1,0,0,0,0,1,1,0,0,2961,
scooby_state_402dcb|54|8 23,1,0,0,0,2,0,0,0,1,0,0,2930,0,3,2960,
scooby_state_402dcb|23|-3 5,0,0,0,0,0,0,1,0,0,0,45,2908,0,0,2959,
scooby_state_402dc7|4|-2 1,0,0,1,0,0,0,0,0,0,0,1091,1863,1,0,2957,
scooby_state_402dcb|20|8 19,0,0,0,2,0,1,0,0,0,0,0,2934,0,0,2956,
scooby_state_402dcb|29|-3 1,1,0,0,1,0,0,2,0,1,1,4,2943,0,0,2954,
scooby_state_402dc7|0|-2 0,1,0,0,1,0,0,0,0,1,1,1152,1793,0,0,2949,
scooby_state_402dc7|5|-1 20,1,0,0,1,0,2,1,0,0,0,1625,1296,1,0,2947,
scooby_state_402dc7|30|-2 1,0,1,1,0,1,0,0,1,0,0,982,1958,0,0,2945,
scooby_state_402dcb|4|1 0,0,1,3,3,0,1,0,0,0,0,0,2926,1,0,2935,
scooby_state_402dc3|7|-11 2932,0,0,0,1,0,0,0,0,0,0,1,0,0,1,2935,
scooby_state_402dcb|44|-3 4,0,1,0,0,0,0,0,0,0,0,50,2873,1,1,2930,
scooby_state_402dcb|0|-4 1,0,0,0,0,0,0,0,1,0,0,0,2923,0,0,2925,
scooby_state_40307e|0|0 2910,0,0,1,1,1,0,1,0,0,0,1,0,0,0,2915,
scooby_state_402dcb|34|8 36,1,1,0,0,0,0,0,0,0,1,0,2866,0,3,2908,
scooby_state_402dcb|44|8 39,0,0,1,0,0,0,1,3,2,0,0,2858,0,2,2906,
scooby_state_402dcb|58|1 0,0,2,2,2,1,1,0,1,0,0,0,2891,0,0,2900,
scooby_state_402dcb|43|8 9,0,2,0,0,1,0,0,2,0,0,0,2881,0,3,2898,
scooby_state_402dcb|62|4 36,2,1,0,1,1,0,0,0,0,1,5,2848,2,0,2897,
scooby_state_402dcb|36|8 6,1,0,1,1,0,1,1,1,0,0,0,2881,0,1,2894,
scooby_state_402dc7|20|-2 2,1,0,1,0,0,1,0,2,0,0,1106,1770,0,0,2883,
scooby_state_402dcb|34|4 36,0,0,1,1,0,0,0,0,0,0,3,2837,0,1,2879,
scooby_state_402dcb|27|8 26,1,0,0,0,0,1,0,0,0,0,0,2846,0,1,2875,
scooby_state_402dc3|45|-11 2869,0,0,0,0,1,1,0,0,0,1,1,0,1,0,2874,
scooby_state_402dcb|45|8 30,1,0,0,1,1,1,1,0,1,1,1,2832,1,2,2873,
scooby_state_402dcb|60|8 25,2,0,0,2,0,0,0,0,0,0,2,2841,0,1,2873,
scooby_state_402dc7|32|-2 1,0,1,0,0,1,0,1,0,0,1,1033,1833,1,0,2872,
scooby_state_402dcb|29|8 8,0,1,0,0,0,0,0,0,0,0,0,2861,1,1,2872,
scooby_state_402dcb|35|1 1,3,3,0,0,0,0,0,1,0,0,1,2861,0,1,2871,
scooby_state_402dcb|41|8 34,0,1,0,0,0,1,0,0,1,2,0,2825,0,0,2864,
scooby_state_402dc7|42|-2 0,1,0,1,2,1,1,0,0,0,1,1074,1778,0,1,2860,
scooby_state_402dcb|12|8 5,0,0,0,1,0,0,0,0,0,0,0,2840,0,0,2846,
scooby_state_402dc7|55|-2 1,0,0,0,0,0,1,0,1,0,0,1054,1789,0,0,2846,
scooby_state_402dcb|10|7 44,1,0,0,1,0,0,0,1,0,1,1,2795,0,0,2844,
scooby_state_402dcb|52|8 20,1,0,1,0,0,1,1,0,0,0,0,2816,0,1,2841,
scooby_state_402dcb|19|-3 1,0,0,1,0,0,0,0,0,0,0,5,2825,0,0,2832,
scooby_state_402dc3|24|-11 2824,0,0,0,0,1,0,1,1,1,0,0,0,0,0,2828,
scooby_state_402dcb|61|4 24,0,0,0,0,0,0,1,1,0,0,3,2797,0,0,2826,
scooby_state_402dcb|59|8 9,0,0,1,0,1,1,0,0,0,0,0,2807,0,0,2819,
scooby_state_402dcb|20|-3 4,2,0,1,0,1,0,0,1,0,0,55,2747,0,0,2811,
scooby_state_402dc7|36|-2 0,0,1,0,0,1,0,0,0,1,1,1034,1762,0,0,2800,
scooby_state_402dcb|23|8 22,1,0,0,0,0,0,1,1,0,4,0,2769,1,1,2800,
scooby_state_402dcb|31|8 32,0,1,1,0,0,1,1,1,0,0,1,2752,2,1,2793,
scooby_state_402dc7|31|-2 0,0,0,1,0,1,0,0,1,0,0,988,1800,0,0,2791,
scooby_state_402dcb|49|8 8,0,1,3,1,0,1,0,1,0,0,0,2771,0,0,2786,
scooby_state_402dcb|55|8 24,0,1,1,1,0,1,0,2,0,1,2,2746,1,1,2781,
scooby_state_402dcb|38|8 24,0,0,0,0,0,0,0,1,1,0,1,2745,0,0,2772,
scooby_state_402dcb|40|8 18,0,0,0,0,0,0,0,1,0,0,1,2745,0,0,2765,
scooby_state_402dcb|51|-7 0,0,0,0,0,0,0,2,0,2,0,0,2756,0,0,2760,
scooby_state_402dc7|41|-2 1,0,1,1,0,1,0,0,1,2,0,994,1755,1,0,2757,
scooby_state_402dcb|17|8 26,0,0,0,0,0,1,0,0,1,0,1,2724,2,1,2756,
scooby_state_402dcb|34|-3 1,1,1,0,0,0,1,0,0,0,0,58,2691,0,1,2754,
scooby_state_402dcb|39|8 7,0,1,0,0,1,0,0,0,0,0,0,2745,0,0,2754,
scooby_state_402dcb|11|11 14,0,0,0,1,0,0,0,0,0,0,0,2736,0,0,2751,
scooby_state_402dcb|21|8 30,1,0,1,0,0,0,1,0,0,0,0,2713,0,2,2748,
scooby_state_402dcb|18|8 26,1,0,2,0,1,1,0,1,0,0,0,2712,1,1,2746,
scooby_state_402dcb|16|-3 0,1,0,0,1,1,0,0,0,0,0,8,2730,0,0,2741,
scooby_state_402dcb|48|8 13,1,0,0,0,0,1,0,0,1,0,0,2714,0,3,2733,
scooby_state_402dcb|28|8 34,0,1,1,1,0,1,0,1,0,0,1,2681,0,2,2723,
scooby_state_402dcb|57|8 26,0,0,0,0,0,0,1,0,0,0,0,2685,0,2,2714,
scooby_state_402dcb|51|1 0,1,0,2,3,1,0,1,0,0,1,0,2698,0,0,2707,
scooby_state_402dcb|60|4 23,0,0,0,0,0,0,0,0,2,0,3,2679,0,0,2707,
scooby_state_402dcb|32|8 14,3,0,0,0,0,0,0,1,0,0,1,2687,0,1,2707,
scooby_state_402dc7|51|-1 21,0,0,1,1,0,0,0,1,0,0,1585,1096,0,1,2706,
scooby_state_402dc3|33|-8 2698,0,1,1,0,0,0,0,1,0,0,1,1,1,0,2704,
scooby_state_402dcb|16|8 12,0,1,0,0,0,0,1,0,0,0,0,2683,1,0,2698,
scooby_state_402dc7|26|-2 0,1,1,0,0,0,0,1,1,0,2,954,1731,0,0,2691,
scooby_state_402dc7|16|-2 0,1,1,1,0,0,3,0,1,2,0,1043,1636,1,1,2690,
scooby_state_402dcb|37|8 17,0,0,1,1,1,0,1,0,1,0,0,2654,0,2,2678,
scooby_state_402dc7|51|-2 1,0,0,0,1,3,0,0,0,1,0,929,1743,0,0,2678,
scooby_state_402dc7|48|-2 0,0,0,0,0,2,0,0,1,0,1,1059,1612,1,1,2677,
scooby_state_402dc7|22|-2 0,0,1,0,0,1,1,0,0,0,1,941,1728,0,0,2673,
scooby_state_402dc7|23|-2 0,0,0,0,0,2,1,0,0,0,0,982,1688,0,0,2673,
scooby_state_402dc7|19|-1 21,0,0,1,1,0,1,0,0,1,0,1629,1017,0,0,2671,
scooby_state_402dc3|17|-8 2666,0,1,0,0,0,0,0,0,0,0,1,0,0,0,2668,
scooby_state_402dcb|22|8 12,0,0,0,0,0,0,0,2,0,1,0,2649,0,0,2664,
scooby_state_402dcb|63|4 20,0,0,0,1,0,0,1,0,0,0,4,2635,0,0,2661,
scooby_state_402dcb|24|8 33,1,0,0,0,0,0,1,0,0,0,0,2607,0,0,2642,
scooby_state_402dc7|13|-2 0,0,0,1,0,2,1,0,1,0,0,945,1690,0,0,2640,
scooby_state_402dcb|11|8 24,0,0,0,0,1,1,0,1,2,1,2,2605,0,0,2637,
scooby_state_402dcb|46|8 5,1,1,0,1,0,0,2,0,0,0,0,2620,0,0,2630,
scooby_state_402dcb|60|7 49,1,0,1,0,0,0,0,0,1,0,1,2571,0,0,2624,
scooby_state_402dcb|53|1 0,0,0,0,1,0,0,0,3,2,2,0,2613,2,0,2623,
[...]
scooby_state_403012|30|12 1,0,0,0,0,0,0,0,0,0,0,0,0,0,0,1,
scooby_state_403083|45|13 1,0,0,0,0,0,0,0,0,0,0,0,0,0,0,1,
scooby_state_402dcb|32|-30 1,0,0,0,0,0,0,0,0,0,0,0,0,0,0,1,
scooby_state_403012|55|-3 1,0,0,0,0,0,0,0,0,0,0,0,0,0,0,1,
scooby_state_41d445|17|1 1,0,0,0,0,0,0,0,0,0,0,0,0,0,0,1,
scooby_state_403083|38|-2 1,0,0,0,0,0,0,0,0,0,0,0,0,0,0,1,
scooby_state_40301c|10|2 1,0,0,0,0,0,0,0,0,0,0,0,0,0,0,1,
scooby_state_402dc7|3|-13 0,0,0,0,0,0,0,0,0,0,0,0,1,0,0,1,
scooby_state_403083|8|-13 1,0,0,0,0,0,0,0,0,0,0,0,0,0,0,1,
scooby_state_402dcb|38|34 1,0,0,0,0,0,0,0,0,0,0,0,0,0,0,1,
scooby_state_403083|12|-12 1,0,0,0,0,0,0,0,0,0,0,0,0,0,0,1,
scooby_state_402dc7|28|0 0,0,0,0,0,0,0,0,0,0,0,0,1,0,0,1,
scooby_state_403039|26|22 1,0,0,0,0,0,0,0,0,0,0,0,0,0,0,1,
scooby_state_40307e|17|-42 1,0,0,0,0,0,0,0,0,0,0,0,0,0,0,1,
scooby_state_402dc0|55|1 1,0,0,0,0,0,0,0,0,0,0,0,0,0,0,1,
scooby_state_403083|3|-45 1,0,0,0,0,0,0,0,0,0,0,0,0,0,0,1,
scooby_state_402dcb|41|23 0,0,0,0,0,0,0,0,0,0,0,0,1,0,0,1,
scooby_state_402dcb|4|-30 1,0,0,0,0,0,0,0,0,0,0,0,0,0,0,1,
scooby_state_403083|54|-3 1,0,0,0,0,0,0,0,0,0,0,0,0,0,0,1,
scooby_state_40307e|33|27 1,0,0,0,0,0,0,0,0,0,0,0,0,0,0,1,
scooby_state_40307e|4|-51 1,0,0,0,0,0,0,0,0,0,0,0,0,0,0,1,
scooby_state_403083|6|-49 0,0,0,0,0,0,0,0,0,0,0,0,0,0,1,1,
scooby_state_402d9f|49|0 0,0,0,0,0,0,0,0,0,0,0,0,0,0,1,1,
scooby_state_402dcb|36|-27 1,0,0,0,0,0,0,0,0,0,0,0,0,0,0,1,
scooby_state_40301c|32|-17 1,0,0,0,0,0,0,0,0,0,0,0,0,0,0,1,
scooby_state_40307e|53|34 1,0,0,0,0,0,0,0,0,0,0,0,0,0,0,1,
scooby_state_403012|23|-3 1,0,0,0,0,0,0,0,0,0,0,0,0,0,0,1,
scooby_state_40307e|17|-20 1,0,0,0,0,0,0,0,0,0,0,0,0,0,0,1,
scooby_state_402dc7|35|15 0,0,0,0,0,0,0,0,0,0,0,0,1,0,0,1,
scooby_state_40307e|12|-47 1,0,0,0,0,0,0,0,0,0,0,0,0,0,0,1,
scooby_state_402d9f|25|0 0,0,0,0,0,0,0,0,0,0,0,0,0,0,1,1,
scooby_state_40301c|21|3 0,0,0,0,0,0,0,0,0,0,0,0,1,0,0,1,
scooby_state_40301c|26|-5 1,0,0,0,0,0,0,0,0,0,0,0,0,0,0,1,
scooby_state_403083|29|-7 1,0,0,0,0,0,0,0,0,0,0,0,0,0,0,1,
scooby_state_403012|32|-27 0,0,0,0,0,0,0,0,0,0,0,0,0,0,1,1,
scooby_state_40301c|11|11 1,0,0,0,0,0,0,0,0,0,0,0,0,0,0,1,
scooby_state_403039|63|48 1,0,0,0,0,0,0,0,0,0,0,0,0,0,0,1,
scooby_state_402dcb|60|27 1,0,0,0,0,0,0,0,0,0,0,0,0,0,0,1,
scooby_state_403083|59|34 1,0,0,0,0,0,0,0,0,0,0,0,0,0,0,1,
scooby_state_402dc7|21|10 1,0,0,0,0,0,0,0,0,0,0,0,0,0,0,1,
scooby_state_40307e|48|45 1,0,0,0,0,0,0,0,0,0,0,0,0,0,0,1,
scooby_state_40301c|20|-11 0,0,0,0,0,0,0,0,0,0,0,0,0,0,1,1,
scooby_state_402dc7|25|13 0,0,0,0,0,0,0,0,0,0,0,0,1,0,0,1,
scooby_state_402f40|61|1 1,0,0,0,0,0,0,0,0,0,0,0,0,0,0,1,
scooby_state_403083|23|-24 1,0,0,0,0,0,0,0,0,0,0,0,0,0,0,1,
scooby_state_403083|24|-12 1,0,0,0,0,0,0,0,0,0,0,0,0,0,0,1,
scooby_state_403039|63|63 1,0,0,0,0,0,0,0,0,0,0,0,0,0,0,1,
scooby_state_403083|14|-36 1,0,0,0,0,0,0,0,0,0,0,0,0,0,0,1,
scooby_state_402dfb|32|-11 0,0,0,0,0,0,0,0,0,0,0,1,0,0,0,1,
scooby_state_403083|18|-44 1,0,0,0,0,0,0,0,0,0,0,0,0,0,0,1,
scooby_state_403012|5|-13 1,0,0,0,0,0,0,0,0,0,0,0,0,0,0,1,
scooby_state_40307e|56|38 1,0,0,0,0,0,0,0,0,0,0,0,0,0,0,1,
scooby_state_402ff0|63|0 1,0,0,0,0,0,0,0,0,0,0,0,0,0,0,1,
scooby_state_403012|2|-20 0,0,0,0,0,0,0,0,0,0,0,1,0,0,0,1,
scooby_state_403012|63|22 1,0,0,0,0,0,0,0,0,0,0,0,0,0,0,1,
scooby_state_4030f5|3|3 1,0,0,0,0,0,0,0,0,0,0,0,0,0,0,1,
scooby_state_403083|47|6 1,0,0,0,0,0,0,0,0,0,0,0,0,0,0,1,
scooby_state_40301c|48|-11 0,1,0,0,0,0,0,0,0,0,0,0,0,0,0,1,
scooby_state_402f3c|60|4 1,0,0,0,0,0,0,0,0,0,0,0,0,0,0,1,
scooby_state_40307e|5|-38 1,0,0,0,0,0,0,0,0,0,0,0,0,0,0,1,
scooby_state_403083|28|-13 0,0,0,0,0,0,0,0,0,0,0,0,0,0,1,1,
scooby_state_402dc7|31|-16 0,0,0,0,0,0,0,0,0,0,0,0,1,0,0,1,
scooby_state_403083|23|-20 1,0,0,0,0,0,0,0,0,0,0,0,0,0,0,1,
scooby_state_403083|51|4 1,0,0,0,0,0,0,0,0,0,0,0,0,0,0,1,
scooby_state_403039|8|-14 0,0,0,0,0,0,0,0,0,0,0,1,0,0,0,1,
scooby_state_403012|33|-30 1,0,0,0,0,0,0,0,0,0,0,0,0,0,0,1,
scooby_state_403083|14|-49 1,0,0,0,0,0,0,0,0,0,0,0,0,0,0,1,
scooby_state_403039|30|-13 1,0,0,0,0,0,0,0,0,0,0,0,0,0,0,1,
scooby_state_403083|23|-39 1,0,0,0,0,0,0,0,0,0,0,0,0,0,0,1,
scooby_state_403083|21|-14 1,0,0,0,0,0,0,0,0,0,0,0,0,0,0,1,
scooby_state_403083|12|-11 1,0,0,0,0,0,0,0,0,0,0,0,0,0,0,1,
scooby_state_403012|41|-18 1,0,0,0,0,0,0,0,0,0,0,0,0,0,0,1,
scooby_state_402dc7|38|15 0,0,0,0,0,0,0,0,0,0,0,0,1,0,0,1,
scooby_state_403012|63|44 0,0,0,0,0,0,0,0,0,0,0,0,0,0,1,1,
scooby_state_40307e|12|-41 1,0,0,0,0,0,0,0,0,0,0,0,0,0,0,1,
scooby_state_403083|32|-2 1,0,0,0,0,0,0,0,0,0,0,0,0,0,0,1,
scooby_state_403012|50|-7 1,0,0,0,0,0,0,0,0,0,0,0,0,0,0,1,
scooby_state_40307e|42|18 1,0,0,0,0,0,0,0,0,0,0,0,0,0,0,1,
scooby_state_40307e|62|43 1,0,0,0,0,0,0,0,0,0,0,0,0,0,0,1,
scooby_state_403083|23|-36 0,0,0,0,0,0,0,0,0,0,0,0,0,0,1,1,
scooby_state_403039|62|4 1,0,0,0,0,0,0,0,0,0,0,0,0,0,0,1,
scooby_state_403012|56|-5 1,0,0,0,0,0,0,0,0,0,0,0,0,0,0,1,
scooby_state_402e04|49|-1 0,0,0,0,0,0,0,0,0,0,0,0,1,0,0,1,
scooby_state_40301c|46|-7 0,0,0,0,0,0,0,0,0,0,0,0,1,0,0,1,
scooby_state_402dc7|17|0 0,0,0,0,0,0,0,0,0,0,0,1,0,0,0,1,
scooby_state_402d96|53|-1 0,0,1,0,0,0,0,0,0,0,0,0,0,0,0,1,
scooby_state_402dc3|2|-44 1,0,0,0,0,0,0,0,0,0,0,0,0,0,0,1,
scooby_state_403083|47|-15 0,0,0,0,0,0,0,0,0,0,0,0,0,0,1,1,
scooby_state_40301c|4|-13 1,0,0,0,0,0,0,0,0,0,0,0,0,0,0,1,
scooby_state_41d510|20|2 0,0,0,0,0,0,0,0,0,0,0,1,0,0,0,1,
scooby_state_402dcb|54|30 0,0,0,0,0,0,0,0,0,0,0,0,1,0,0,1,
scooby_state_402e04|23|-1 1,0,0,0,0,0,0,0,0,0,0,0,0,0,0,1,
scooby_state_403083|54|18 1,0,0,0,0,0,0,0,0,0,0,0,0,0,0,1,
scooby_state_41d385|14|1 1,0,0,0,0,0,0,0,0,0,0,0,0,0,0,1,
scooby_state_41d3c2|15|1 1,0,0,0,0,0,0,0,0,0,0,0,0,0,0,1,
scooby_state_402d40|44|0 0,0,0,0,0,0,0,0,0,0,0,0,1,0,0,1,
scooby_state_403012|10|-34 1,0,0,0,0,0,0,0,0,0,0,0,0,0,0,1,
scooby_state_41a7c2|31|1 1,0,0,0,0,0,0,0,0,0,0,0,0,0,0,1,
scooby_state_402dc7|12|0 0,0,0,0,0,0,0,0,0,0,0,1,0,0,0,1,
scooby_state_402dc7|47|0 0,0,0,0,0,0,0,0,0,0,0,0,1,0,0,1,
scooby_state_403012|32|-14 0,0,1,0,0,0,0,0,0,0,0,0,0,0,0,1,
scooby_state_403083|16|-16 1,0,0,0,0,0,0,0,0,0,0,0,0,0,0,1,
scooby_state_40301c|42|-13 1,0,0,0,0,0,0,0,0,0,0,0,0,0,0,1,
scooby_state_402dcb|43|24 1,0,0,0,0,0,0,0,0,0,0,0,0,0,0,1,
scooby_state_402dcb|55|37 1,0,0,0,0,0,0,0,0,0,0,0,0,0,0,1,
scooby_state_402d79|3|-2 1,0,0,0,0,0,0,0,0,0,0,0,0,0,0,1,
scooby_state_403083|26|-35 0,0,0,0,0,0,0,0,0,0,0,0,1,0,0,1,
scooby_state_403012|21|-35 0,0,0,0,0,0,0,0,0,0,0,0,1,0,0,1,
scooby_state_403083|4|-59 1,0,0,0,0,0,0,0,0,0,0,0,0,0,0,1,
scooby_state_403124|15|0 1,0,0,0,0,0,0,0,0,0,0,0,0,0,0,1,
scooby_state_403083|62|3 1,0,0,0,0,0,0,0,0,0,0,0,0,0,0,1,
scooby_state_402dcb|21|-34 0,0,0,0,0,0,0,0,0,0,0,0,1,0,0,1,
scooby_state_403083|59|10 1,0,0,0,0,0,0,0,0,0,0,0,0,0,0,1,
scooby_state_403039|9|6 0,0,0,0,0,0,0,0,0,0,0,1,0,0,0,1,
scooby_state_403083|29|-16 1,0,0,0,0,0,0,0,0,0,0,0,0,0,0,1,
scooby_state_402dc3|18|-45 1,0,0,0,0,0,0,0,0,0,0,0,0,0,0,1,
scooby_state_402dc7|38|12 0,0,0,0,0,0,0,0,0,0,0,0,1,0,0,1,
scooby_state_403083|24|-8 1,0,0,0,0,0,0,0,0,0,0,0,0,0,0,1,
scooby_state_40307e|40|29 1,0,0,0,0,0,0,0,0,0,0,0,0,0,0,1,
scooby_state_402dc7|29|15 0,0,0,0,0,0,0,0,0,0,0,0,1,0,0,1,
scooby_state_403083|35|3 0,0,0,0,0,0,0,0,0,0,0,0,1,0,0,1,
scooby_state_41b2f8|11|0 1,0,0,0,0,0,0,0,0,0,0,0,0,0,0,1,
scooby_state_40307e|37|34 1,0,0,0,0,0,0,0,0,0,0,0,0,0,0,1,
scooby_state_402e04|9|-1 0,0,0,0,0,0,0,0,0,0,0,0,1,0,0,1,
scooby_state_40307e|2|-57 1,0,0,0,0,0,0,0,0,0,0,0,0,0,0,1,
scooby_state_403012|36|-3 1,0,0,0,0,0,0,0,0,0,0,0,0,0,0,1,
scooby_state_402dab|54|6 1,0,0,0,0,0,0,0,0,0,0,0,0,0,0,1,
scooby_state_402d9f|27|0 0,0,0,0,0,0,0,0,0,0,0,0,0,0,1,1,
scooby_state_403012|44|-18 1,0,0,0,0,0,0,0,0,0,0,0,0,0,0,1,
scooby_state_403083|37|-22 0,0,0,0,0,0,0,0,0,0,0,1,0,0,0,1,
scooby_state_403083|3|-60 1,0,0,0,0,0,0,0,0,0,0,0,0,0,0,1,
scooby_state_403083|27|-2 0,0,0,0,1,0,0,0,0,0,0,0,0,0,0,1,
scooby_state_403012|40|-12 1,0,0,0,0,0,0,0,0,0,0,0,0,0,0,1,
scooby_state_41a770|29|0 0,1,0,0,0,0,0,0,0,0,0,0,0,0,0,1,
scooby_state_41a781|30|1 1,0,0,0,0,0,0,0,0,0,0,0,0,0,0,1,
scooby_state_402d9f|1|0 0,0,0,0,0,0,0,0,0,0,0,0,0,0,1,1,
scooby_state_41a843|33|1 0,0,0,0,0,0,0,0,0,0,0,1,0,0,0,1,
scooby_state_403083|27|-20 1,0,0,0,0,0,0,0,0,0,0,0,0,0,0,1,
scooby_state_403012|2|-34 1,0,0,0,0,0,0,0,0,0,0,0,0,0,0,1,
scooby_state_41a8e6|35|2 1,0,0,0,0,0,0,0,0,0,0,0,0,0,0,1,
scooby_state_41a944|37|1 1,0,0,0,0,0,0,0,0,0,0,0,0,0,0,1,
scooby_state_403083|7|3 0,0,0,0,0,0,0,0,0,0,0,0,1,0,0,1,
scooby_state_41ac4f|49|10 1,0,0,0,0,0,0,0,0,0,0,0,0,0,0,1,
scooby_state_402db2|54|-9 1,0,0,0,0,0,0,0,0,0,0,0,0,0,0,1,
scooby_state_41acc5|51|1 0,1,0,0,0,0,0,0,0,0,0,0,0,0,0,1,
scooby_state_41ad00|52|1 1,0,0,0,0,0,0,0,0,0,0,0,0,0,0,1,
scooby_state_402e04|30|-2 1,0,0,0,0,0,0,0,0,0,0,0,0,0,0,1,
scooby_state_402e04|2|-2 1,0,0,0,0,0,0,0,0,0,0,0,0,0,0,1,
scooby_state_403083|21|4 1,0,0,0,0,0,0,0,0,0,0,0,0,0,0,1,
scooby_state_403012|5|-22 0,0,1,0,0,0,0,0,0,0,0,0,0,0,0,1,
scooby_state_403012|12|-12 1,0,0,0,0,0,0,0,0,0,0,0,0,0,0,1,
scooby_state_403083|38|-23 1,0,0,0,0,0,0,0,0,0,0,0,0,0,0,1,
scooby_state_40307e|18|-33 1,0,0,0,0,0,0,0,0,0,0,0,0,0,0,1,
scooby_state_402d9f|33|0 0,0,0,0,0,0,0,0,0,0,0,0,0,0,1,1,
scooby_state_402dcb|32|-23 1,0,0,0,0,0,0,0,0,0,0,0,0,0,0,1,
scooby_state_402dc7|41|-13 0,0,0,0,0,0,0,0,0,0,0,1,0,0,0,1,
scooby_state_402e04|60|-2 1,0,0,0,0,0,0,0,0,0,0,0,0,0,0,1,
scooby_state_402dc3|16|-34 1,0,0,0,0,0,0,0,0,0,0,0,0,0,0,1,
scooby_state_402dcb|5|-2 1,0,0,0,0,0,0,0,0,0,0,0,0,0,0,1,
scooby_state_403083|52|3 0,0,0,0,0,0,0,0,0,0,0,0,1,0,0,1,
scooby_state_403012|24|-10 0,0,0,0,0,0,0,0,0,0,0,0,1,0,0,1,
scooby_state_402d79|40|-2 1,0,0,0,0,0,0,0,0,0,0,0,0,0,0,1,
scooby_state_402dc7|39|16 0,0,0,0,0,0,0,0,0,0,0,0,1,0,0,1,
scooby_state_403083|22|-40 0,0,0,0,0,0,0,0,0,0,0,1,0,0,0,1,
scooby_state_403012|34|-29 1,0,0,0,0,0,0,0,0,0,0,0,0,0,0,1,
scooby_state_403083|27|-22 1,0,0,0,0,0,0,0,0,0,0,0,0,0,0,1,
scooby_state_403083|46|-7 1,0,0,0,0,0,0,0,0,0,0,0,0,0,0,1,
scooby_state_403083|50|4 1,0,0,0,0,0,0,0,0,0,0,0,0,0,0,1,
scooby_state_403083|24|-15 1,0,0,0,0,0,0,0,0,0,0,0,0,0,0,1,
scooby_state_403012|9|-54 1,0,0,0,0,0,0,0,0,0,0,0,0,0,0,1,
scooby_state_40301c|11|2 1,0,0,0,0,0,0,0,0,0,0,0,0,0,0,1,
scooby_state_40307e|5|-47 1,0,0,0,0,0,0,0,0,0,0,0,0,0,0,1,
scooby_state_40307e|3|-49 1,0,0,0,0,0,0,0,0,0,0,0,0,0,0,1,
scooby_state_403083|35|10 1,0,0,0,0,0,0,0,0,0,0,0,0,0,0,1,
scooby_state_403012|11|5 0,0,0,0,0,0,0,0,0,0,0,0,1,0,0,1,
scooby_state_403083|26|-30 1,0,0,0,0,0,0,0,0,0,0,0,0,0,0,1,
scooby_state_402dc7|57|11 0,0,0,0,0,0,0,0,0,0,0,0,1,0,0,1,
scooby_state_403039|0|-8 0,0,1,0,0,0,0,0,0,0,0,0,0,0,0,1,
scooby_state_403083|46|-9 1,0,0,0,0,0,0,0,0,0,0,0,0,0,0,1,
scooby_state_403083|50|-5 1,0,0,0,0,0,0,0,0,0,0,0,0,0,0,1,
scooby_state_40301c|59|22 1,0,0,0,0,0,0,0,0,0,0,0,0,0,0,1,
scooby_state_40307e|48|47 1,0,0,0,0,0,0,0,0,0,0,0,0,0,0,1,
scooby_state_402dc3|27|-34 1,0,0,0,0,0,0,0,0,0,0,0,0,0,0,1,
scooby_state_403083|10|-38 1,0,0,0,0,0,0,0,0,0,0,0,0,0,0,1,
scooby_state_402dc7|33|0 0,0,0,0,0,0,0,0,0,0,0,1,0,0,0,1,
scooby_state_40307e|52|45 1,0,0,0,0,0,0,0,0,0,0,0,0,0,0,1,
scooby_state_402dcb|52|32 1,0,0,0,0,0,0,0,0,0,0,0,0,0,0,1,
scooby_state_403083|5|-3 1,0,0,0,0,0,0,0,0,0,0,0,0,0,0,1,
scooby_state_403012|12|-49 1,0,0,0,0,0,0,0,0,0,0,0,0,0,0,1,
scooby_state_403012|53|11 1,0,0,0,0,0,0,0,0,0,0,0,0,0,0,1,
scooby_state_40307e|20|-20 1,0,0,0,0,0,0,0,0,0,0,0,0,0,0,1,
scooby_state_403083|47|-6 1,0,0,0,0,0,0,0,0,0,0,0,0,0,0,1,
scooby_state_40301c|29|4 1,0,0,0,0,0,0,0,0,0,0,0,0,0,0,1,
scooby_state_403012|11|-3 1,0,0,0,0,0,0,0,0,0,0,0,0,0,0,1,
scooby_state_403083|8|-32 1,0,0,0,0,0,0,0,0,0,0,0,0,0,0,1,
scooby_state_403012|27|9 0,0,0,0,0,0,0,0,0,0,0,0,1,0,0,1,
scooby_state_402e04|48|-2 1,0,0,0,0,0,0,0,0,0,0,0,0,0,0,1,
scooby_state_403083|17|-18 1,0,0,0,0,0,0,0,0,0,0,0,0,0,0,1,
scooby_state_402d9f|39|0 0,0,0,0,0,0,0,0,0,0,0,0,0,0,1,1,
scooby_state_403039|56|-5 0,0,0,0,0,0,0,0,0,0,0,0,1,0,0,1,
scooby_state_402d9f|9|0 0,0,0,0,0,0,0,0,0,0,0,0,0,0,1,1,
scooby_state_403083|23|3 1,0,0,0,0,0,0,0,0,0,0,0,0,0,0,1,
scooby_state_40307e|44|-11 1,0,0,0,0,0,0,0,0,0,0,0,0,0,0,1,
scooby_state_40301c|40|-15 0,0,0,0,0,0,0,0,0,0,0,1,0,0,0,1,
scooby_state_40301c|16|-16 1,0,0,0,0,0,0,0,0,0,0,0,0,0,0,1,
scooby_state_403012|63|39 1,0,0,0,0,0,0,0,0,0,0,0,0,0,0,1,
scooby_state_402dcb|28|20 1,0,0,0,0,0,0,0,0,0,0,0,0,0,0,1,
scooby_state_403039|14|-49 0,0,0,0,0,0,0,0,0,0,0,1,0,0,0,1,
scooby_state_403012|8|-17 1,0,0,0,0,0,0,0,0,0,0,0,0,0,0,1,
scooby_state_40307e|2|-54 1,0,0,0,0,0,0,0,0,0,0,0,0,0,0,1,
scooby_state_402dc7|8|-13 0,0,0,0,0,0,0,0,0,0,0,1,0,0,0,1,
scooby_state_40301c|4|-31 0,0,0,0,0,0,0,0,0,0,0,0,1,0,0,1,
scooby_state_403083|10|-46 1,0,0,0,0,0,0,0,0,0,0,0,0,0,0,1,
scooby_state_402e04|37|-1 0,0,0,0,0,0,0,0,0,0,0,0,1,0,0,1,

scooby_action_0_deg_dist 0,161262,0,0,0,0,0,0,0,0,0,0,0,0,0,0,
scooby_action_-6_deg_dist 0,1166,8,0,10,0,2,0,0,0,0,0,0,0,0,0,
scooby_action_4_deg_dist 0,2081,45,0,36,0,25,0,0,0,0,0,0,0,0,0,
scooby_action_1_deg_dist 0,537916,290117,0,633229,0,903238,0,0,0,0,0,0,0,0,0,
scooby_action_30_deg_dist 0,1077,5,0,5,0,10,0,0,0,0,0,0,0,0,0,
scooby_action_5_deg_dist 0,1080,13,0,27,0,28,0,0,0,0,0,0,0,0,0,
scooby_action_3_deg_dist 0,1423,15,0,21,0,30,0,0,0,0,0,0,0,0,0,
scooby_action_32_deg_dist 0,975,6,0,8,0,3,0,0,0,0,0,0,0,0,0,
scooby_action_10_deg_dist 0,1184,7,0,17,0,20,0,0,0,0,0,0,0,0,0,
scooby_action_11_deg_dist 0,1176,10,0,26,0,17,0,0,0,0,0,0,0,0,0,
scooby_action_12_deg_dist 0,1132,11,0,24,0,23,0,0,0,0,0,0,0,0,0,
scooby_action_22_deg_dist 0,1106,10,0,17,0,10,0,0,0,0,0,0,0,0,0,
scooby_action_23_deg_dist 0,1070,8,0,17,0,10,0,0,0,0,0,0,0,0,0,
scooby_action_-1_deg_dist 0,316612,119378,0,222562,0,1505072,0,0,0,0,0,0,0,0,0,
scooby_action_-3_deg_dist 0,1032815,346757,0,237457,0,525315,0,0,0,0,0,0,0,0,0,

scooby_track_called 6845724
scooby_track_same_address 1247393
scooby_track_evict 5598075

scooby_reward_demand_called 6845724
scooby_reward_demand_pt_not_found 3232006
scooby_reward_demand_pt_found 3613718
scooby_reward_demand_pt_found_total 3613718
scooby_reward_demand_has_reward 1235
scooby_reward_train_called 1809662
scooby_reward_assign_reward_called 5598266
scooby_reward_no_pref 161262
scooby_reward_incorrect 1648400
scooby_reward_correct_untimely 2250965
scooby_reward_correct_timely 1361518
scooby_reward_out_of_bounds 176121
scooby_reward_tracker_hit 0

scooby_reward_none_low_bw 161262
scooby_reward_none_high_bw 0
scooby_reward_incorrect_low_bw 1648400
scooby_reward_incorrect_high_bw 0
scooby_reward_correct_untimely_low_bw 2250965
scooby_reward_correct_untimely_high_bw 0
scooby_reward_correct_timely_low_bw 1361518
scooby_reward_correct_timely_high_bw 0
scooby_reward_out_of_bounds_low_bw 176121
scooby_reward_out_of_bounds_high_bw 0
scooby_reward_tracker_hit_low_bw 0
scooby_reward_tracker_hit_high_bw 0

scooby_reward_1 0,576973,543540,949539,37253,0,
scooby_reward_3 0,947,63,35,72,0,
scooby_reward_4 0,1070,360,69,95,0,
scooby_reward_5 0,694,8,17,79,0,
scooby_reward_10 0,613,0,25,182,0,
scooby_reward_11 0,576,3,21,195,0,
scooby_reward_12 0,681,3,19,218,0,
scooby_reward_22 0,419,0,14,462,0,
scooby_reward_23 0,458,0,14,439,0,
scooby_reward_30 0,344,0,8,558,0,
scooby_reward_32 0,310,1,4,525,0,
scooby_reward_-1 0,500088,1298770,158537,34007,0,
scooby_reward_-3 0,564631,408134,252878,101949,0,
scooby_reward_-6 0,596,83,338,87,0,
scooby_reward_0 161262,0,0,0,0,0,

scooby_train_called 5598074
scooby_train_compute_reward 1809662

scooby_register_fill_called 6935539
scooby_register_fill_set 2284494
scooby_register_fill_set_total 2284494

scooby_register_prefetch_hit_called 7880078
scooby_register_prefetch_hit_set 2989622
scooby_register_prefetch_hit_set_total 2989622

scooby_pref_issue_scooby 21378227

learning_engine_featurewise.action.called 6845724
learning_engine_featurewise.action.explore 12371
learning_engine_featurewise.action.exploit 6833353
learning_engine_featurewise.action.fallback 0
learning_engine_featurewise.action.dyn_fallback_saved_bw 0
learning_engine_featurewise.action.dyn_fallback_saved_bw_acc 59050
learning_engine_featurewise.action.index_1_explored 859
learning_engine_featurewise.action.index_1_exploited 2363641
learning_engine_featurewise.action.index_3_explored 830
learning_engine_featurewise.action.index_3_exploited 659
learning_engine_featurewise.action.index_4_explored 828
learning_engine_featurewise.action.index_4_exploited 1359
learning_engine_featurewise.action.index_5_explored 802
learning_engine_featurewise.action.index_5_exploited 346
learning_engine_featurewise.action.index_10_explored 859
learning_engine_featurewise.action.index_10_exploited 369
learning_engine_featurewise.action.index_11_explored 844
learning_engine_featurewise.action.index_11_exploited 385
learning_engine_featurewise.action.index_12_explored 845
learning_engine_featurewise.action.index_12_exploited 345
learning_engine_featurewise.action.index_22_explored 830
learning_engine_featurewise.action.index_22_exploited 313
learning_engine_featurewise.action.index_23_explored 828
learning_engine_featurewise.action.index_23_exploited 277
learning_engine_featurewise.action.index_30_explored 818
learning_engine_featurewise.action.index_30_exploited 279
learning_engine_featurewise.action.index_32_explored 768
learning_engine_featurewise.action.index_32_exploited 224
learning_engine_featurewise.action.index_-1_explored 816
learning_engine_featurewise.action.index_-1_exploited 2162808
learning_engine_featurewise.action.index_-3_explored 803
learning_engine_featurewise.action.index_-3_exploited 2141541
learning_engine_featurewise.action.index_-6_explored 809
learning_engine_featurewise.action.index_-6_exploited 377
learning_engine_featurewise.action.index_0_explored 832
learning_engine_featurewise.action.index_0_exploited 160430
learning_engine_featurewise.learn.called 5598074
learning_engine_featurewise.learn.su_skip_PC 0
learning_engine_featurewise.learn.su_skip_PC_Delta 0

learning_engine_featurewise.q_value_histogram.bucket_0 0
learning_engine_featurewise.q_value_histogram.bucket_1 0
learning_engine_featurewise.q_value_histogram.bucket_2 4618
learning_engine_featurewise.q_value_histogram.bucket_3 40088
learning_engine_featurewise.q_value_histogram.bucket_4 311908
learning_engine_featurewise.q_value_histogram.bucket_5 903331
learning_engine_featurewise.q_value_histogram.bucket_6 5573408
learning_engine_featurewise.q_value_histogram.bucket_7 0

learning_engine_featurewise.consensus.total 6833353
learning_engine_featurewise.consensus.feature_align_PC 6387350
learning_engine_featurewise.consensus.feature_align_PC_ratio 0.93
learning_engine_featurewise.consensus.feature_align_PC_Delta 5887336
learning_engine_featurewise.consensus.feature_align_PC_Delta_ratio 0.86
learning_engine_featurewise.consensus.feature_align_all 5441333
learning_engine_featurewise.consensus.feature_align_all_ratio 0.80

learning_engine_featurewise.feature_PC_min_weight 1000000.00000000
learning_engine_featurewise.feature_PC_max_weight 0.00000000
learning_engine_featurewise.feature_PC_Delta_min_weight 1000000.00000000
learning_engine_featurewise.feature_PC_Delta_max_weight 0.00000000
unique_pcs 76
unique_pages 23056
unique_trigger_pcs 39
total_bitmaps_seen 0
unique_bitmaps_seen 0

scooby_bw_epochs 1118016
scooby_bw_level_0 519510
scooby_bw_level_1 169738
scooby_bw_level_2 74533
scooby_bw_level_3 354235

scooby_ipc_epochs 0
scooby_ipc_level_0 0
scooby_ipc_level_1 0
scooby_ipc_level_2 0
scooby_ipc_level_3 0

scooby_cache_acc_epochs 267264
scooby_cache_acc_level_0 46
scooby_cache_acc_level_1 1331
scooby_cache_acc_level_2 7030
scooby_cache_acc_level_3 13752
scooby_cache_acc_level_4 66798
scooby_cache_acc_level_5 68430
scooby_cache_acc_level_6 32455
scooby_cache_acc_level_7 21691
scooby_cache_acc_level_8 14920
scooby_cache_acc_level_9 40811

Channel_0_RQ_row_buffer_hit 4599162
Channel_0_RQ_row_buffer_miss 1810428
Channel_0_WQ_row_buffer_hit 75648
Channel_0_WQ_row_buffer_miss 366310
Channel_0_WQ_full 0
Channel_0_dbus_congested 5014814

avg_congested_cycle 10

DRAM_bw_pochs 1118016
DRAM_bw_level_0 519510
DRAM_bw_level_1 169738
DRAM_bw_level_2 74533
DRAM_bw_level_3 354235
