*************************************************
   ChampSim Multicore Out-of-Order Simulator
   Last compiled: Feb  6 2025 20:33:19
*************************************************
parsing config file: /home/wzz/Pythia/config/nopref.ini

trace_0 /home/wzz/Pythia/traces/605.mcf_s-472B.champsimtrace.xz
adding L2C_PREFETCHER: NONE
Initialize SHIP state
warmup_instructions 40000000
simulation_instructions 100000000
champsim_seed 223
measure_ipc 0
measure_ipc_epoch 1000
measure_dram_bw 1
measure_dram_bw_epoch 256
measure_cache_acc 1
measure_cache_acc_epoch 1024
l1d_perfect 0
l2c_perfect 0
llc_perfect 0
l1d_semi_perfect 0
l2c_semi_perfect 0
llc_semi_perfect 0
semi_perfect_cache_page_buffer_size 64

num_cpus 1
cpu_freq 4000
dram_io_freq 2400
page_size 4096
block_size 64
max_read_per_cycle 8
max_fill_per_cycle 1
dram_channels 1
log2_dram_channels 0
dram_ranks 1
dram_banks 8
dram_rows 65536
dram_columns 128
dram_row_size 8
dram_size 4096
dram_pages 1048576

fetch_width 6
decode_width 6
exec_width 4
lq_width 2
sq_width 2
retire_width 4
scheduler_size 128
branch_mispredict_penalty 20
rob_size 256
lq_size 72
sq_size 56
num_instr_destinations_sparc 4
num_instr_destinations 2
num_instr_sources 4

itlb_set 16
itlb_way 8
itlb_rq_size 16
itlb_wq_size 16
itlb_pq_size 0
itlb_mshr_size 8
itlb_latency 1

dtlb_set 16
dtlb_way 4
dtlb_rq_size 16
dtlb_wq_size 16
dtlb_pq_size 0
dtlb_mshr_size 8
dtlb_latency 1

stlb_set 128
stlb_way 12
stlb_rq_size 32
stlb_wq_size 32
stlb_pq_size 0
stlb_mshr_size 16
stlb_latency 8

l1i_size 32
l1i_set 64
l1i_way 8
l1i_rq_size 64
l1i_wq_size 64
l1i_pq_size 8
l1i_mshr_size 8
l1i_latency 1

l1d_size 32
l1d_set 64
l1d_way 8
l1d_rq_size 64
l1d_wq_size 64
l1d_pq_size 8
l1d_mshr_size 16
l1d_latency 4

l2c_size 256
l2c_set 512
l2c_way 8
l2c_rq_size 32
l2c_wq_size 32
l2c_pq_size 32
l2c_mshr_size 32
l2c_latency 10

llc_size 2048
llc_set 2048
llc_way 16
llc_rq_size 32
llc_wq_size 32
llc_pq_size 32
llc_mshr_size 64
llc_latency 20

dram_channel_width 8
dram_wq_size 64
dram_rq_size 64
tRP 15
tRCD 15
tCAS 12.5
dram_dbus_turn_around_time 30
dram_write_high_wm 56
dram_write_low_wm 48
min_dram_writes_per_switch 16
dram_mtps 2400
dram_dbus_return_time 13


Heartbeat CPU  0 instructions:    1000000 cycles:     564634 heartbeat IPC: 1.77106 cumulative IPC: 1.77106 (Simulation time: 0 hr 0 min 4 sec) 
Heartbeat CPU  0 instructions:    2000003 cycles:    1144024 heartbeat IPC: 1.72596 cumulative IPC: 1.74822 (Simulation time: 0 hr 0 min 9 sec) 
Heartbeat CPU  0 instructions:    3000001 cycles:    1707616 heartbeat IPC: 1.77433 cumulative IPC: 1.75684 (Simulation time: 0 hr 0 min 13 sec) 
Heartbeat CPU  0 instructions:    4000000 cycles:    2291462 heartbeat IPC: 1.71278 cumulative IPC: 1.74561 (Simulation time: 0 hr 0 min 17 sec) 
Heartbeat CPU  0 instructions:    5000002 cycles:    2855285 heartbeat IPC: 1.77361 cumulative IPC: 1.75114 (Simulation time: 0 hr 0 min 21 sec) 
Heartbeat CPU  0 instructions:    6000001 cycles:    3416983 heartbeat IPC: 1.78031 cumulative IPC: 1.75594 (Simulation time: 0 hr 0 min 26 sec) 
Heartbeat CPU  0 instructions:    7000001 cycles:    3990744 heartbeat IPC: 1.74289 cumulative IPC: 1.75406 (Simulation time: 0 hr 0 min 31 sec) 
Heartbeat CPU  0 instructions:    8000000 cycles:    4560560 heartbeat IPC: 1.75495 cumulative IPC: 1.75417 (Simulation time: 0 hr 0 min 35 sec) 
Heartbeat CPU  0 instructions:    9000002 cycles:    5143161 heartbeat IPC: 1.71644 cumulative IPC: 1.74990 (Simulation time: 0 hr 0 min 40 sec) 
Heartbeat CPU  0 instructions:   10000000 cycles:    5710519 heartbeat IPC: 1.76255 cumulative IPC: 1.75115 (Simulation time: 0 hr 0 min 45 sec) 
Heartbeat CPU  0 instructions:   11000003 cycles:    6295636 heartbeat IPC: 1.70907 cumulative IPC: 1.74724 (Simulation time: 0 hr 0 min 50 sec) 
Heartbeat CPU  0 instructions:   12000000 cycles:    6866317 heartbeat IPC: 1.75229 cumulative IPC: 1.74766 (Simulation time: 0 hr 0 min 55 sec) 
Heartbeat CPU  0 instructions:   13000000 cycles:    7446582 heartbeat IPC: 1.72335 cumulative IPC: 1.74577 (Simulation time: 0 hr 1 min 0 sec) 
Heartbeat CPU  0 instructions:   14000001 cycles:    8038923 heartbeat IPC: 1.68822 cumulative IPC: 1.74153 (Simulation time: 0 hr 1 min 5 sec) 
Heartbeat CPU  0 instructions:   15000003 cycles:    8619975 heartbeat IPC: 1.72102 cumulative IPC: 1.74014 (Simulation time: 0 hr 1 min 10 sec) 
Heartbeat CPU  0 instructions:   16000000 cycles:    9190624 heartbeat IPC: 1.75239 cumulative IPC: 1.74090 (Simulation time: 0 hr 1 min 15 sec) 
Heartbeat CPU  0 instructions:   17000000 cycles:    9789236 heartbeat IPC: 1.67053 cumulative IPC: 1.73660 (Simulation time: 0 hr 1 min 20 sec) 
Heartbeat CPU  0 instructions:   18000002 cycles:   10383576 heartbeat IPC: 1.68254 cumulative IPC: 1.73351 (Simulation time: 0 hr 1 min 25 sec) 
Heartbeat CPU  0 instructions:   19000003 cycles:   10956379 heartbeat IPC: 1.74580 cumulative IPC: 1.73415 (Simulation time: 0 hr 1 min 30 sec) 
Heartbeat CPU  0 instructions:   20000000 cycles:   11512505 heartbeat IPC: 1.79815 cumulative IPC: 1.73724 (Simulation time: 0 hr 1 min 35 sec) 
Heartbeat CPU  0 instructions:   21000000 cycles:   12080791 heartbeat IPC: 1.75968 cumulative IPC: 1.73830 (Simulation time: 0 hr 1 min 40 sec) 
Heartbeat CPU  0 instructions:   22000003 cycles:   12670193 heartbeat IPC: 1.69664 cumulative IPC: 1.73636 (Simulation time: 0 hr 1 min 45 sec) 
Heartbeat CPU  0 instructions:   23000003 cycles:   13249785 heartbeat IPC: 1.72535 cumulative IPC: 1.73588 (Simulation time: 0 hr 1 min 50 sec) 
Heartbeat CPU  0 instructions:   24000000 cycles:   13833138 heartbeat IPC: 1.71422 cumulative IPC: 1.73496 (Simulation time: 0 hr 1 min 56 sec) 
Heartbeat CPU  0 instructions:   25000000 cycles:   14424246 heartbeat IPC: 1.69174 cumulative IPC: 1.73319 (Simulation time: 0 hr 2 min 1 sec) 
Heartbeat CPU  0 instructions:   26000001 cycles:   15004011 heartbeat IPC: 1.72484 cumulative IPC: 1.73287 (Simulation time: 0 hr 2 min 6 sec) 
Heartbeat CPU  0 instructions:   27000002 cycles:   15598587 heartbeat IPC: 1.68187 cumulative IPC: 1.73093 (Simulation time: 0 hr 2 min 11 sec) 
Heartbeat CPU  0 instructions:   28000000 cycles:   16162974 heartbeat IPC: 1.77183 cumulative IPC: 1.73235 (Simulation time: 0 hr 2 min 16 sec) 
Heartbeat CPU  0 instructions:   29000001 cycles:   16714326 heartbeat IPC: 1.81373 cumulative IPC: 1.73504 (Simulation time: 0 hr 2 min 21 sec) 
Heartbeat CPU  0 instructions:   30000002 cycles:   17284512 heartbeat IPC: 1.75382 cumulative IPC: 1.73566 (Simulation time: 0 hr 2 min 26 sec) 
Heartbeat CPU  0 instructions:   31000000 cycles:   17853936 heartbeat IPC: 1.75616 cumulative IPC: 1.73631 (Simulation time: 0 hr 2 min 31 sec) 
Heartbeat CPU  0 instructions:   32000000 cycles:   18412877 heartbeat IPC: 1.78910 cumulative IPC: 1.73791 (Simulation time: 0 hr 2 min 36 sec) 
Heartbeat CPU  0 instructions:   33000000 cycles:   18991853 heartbeat IPC: 1.72719 cumulative IPC: 1.73759 (Simulation time: 0 hr 2 min 41 sec) 
Heartbeat CPU  0 instructions:   34000000 cycles:   19558953 heartbeat IPC: 1.76336 cumulative IPC: 1.73833 (Simulation time: 0 hr 2 min 46 sec) 
Heartbeat CPU  0 instructions:   35000000 cycles:   20124638 heartbeat IPC: 1.76777 cumulative IPC: 1.73916 (Simulation time: 0 hr 2 min 51 sec) 
Heartbeat CPU  0 instructions:   36000000 cycles:   20702289 heartbeat IPC: 1.73115 cumulative IPC: 1.73894 (Simulation time: 0 hr 2 min 56 sec) 
Heartbeat CPU  0 instructions:   37000001 cycles:   21260967 heartbeat IPC: 1.78994 cumulative IPC: 1.74028 (Simulation time: 0 hr 3 min 0 sec) 
Heartbeat CPU  0 instructions:   38000000 cycles:   21834227 heartbeat IPC: 1.74441 cumulative IPC: 1.74039 (Simulation time: 0 hr 3 min 5 sec) 
Heartbeat CPU  0 instructions:   39000003 cycles:   22414304 heartbeat IPC: 1.72391 cumulative IPC: 1.73996 (Simulation time: 0 hr 3 min 10 sec) 
Heartbeat CPU  0 instructions:   40000000 cycles:   22974369 heartbeat IPC: 1.78550 cumulative IPC: 1.74107 (Simulation time: 0 hr 3 min 15 sec) 

Warmup complete CPU  0 instructions:   40000002 cycles:   22974370 (Simulation time: 0 hr 3 min 15 sec) 

Heartbeat CPU  0 instructions:   41000001 cycles:   26576888 heartbeat IPC: 0.27758 cumulative IPC: 0.27758 (Simulation time: 0 hr 3 min 23 sec) 
Heartbeat CPU  0 instructions:   42000002 cycles:   30903089 heartbeat IPC: 0.23115 cumulative IPC: 0.25225 (Simulation time: 0 hr 3 min 32 sec) 
Heartbeat CPU  0 instructions:   43000003 cycles:   33346804 heartbeat IPC: 0.40921 cumulative IPC: 0.28923 (Simulation time: 0 hr 3 min 38 sec) 
Heartbeat CPU  0 instructions:   44000000 cycles:   37615030 heartbeat IPC: 0.23429 cumulative IPC: 0.27321 (Simulation time: 0 hr 3 min 47 sec) 
Heartbeat CPU  0 instructions:   45000001 cycles:   40093399 heartbeat IPC: 0.40349 cumulative IPC: 0.29207 (Simulation time: 0 hr 3 min 54 sec) 
Heartbeat CPU  0 instructions:   46000001 cycles:   44373579 heartbeat IPC: 0.23364 cumulative IPC: 0.28038 (Simulation time: 0 hr 4 min 2 sec) 
Heartbeat CPU  0 instructions:   47000001 cycles:   47973909 heartbeat IPC: 0.27775 cumulative IPC: 0.28001 (Simulation time: 0 hr 4 min 10 sec) 
Heartbeat CPU  0 instructions:   48000000 cycles:   50463825 heartbeat IPC: 0.40162 cumulative IPC: 0.29102 (Simulation time: 0 hr 4 min 17 sec) 
Heartbeat CPU  0 instructions:   49000000 cycles:   54789923 heartbeat IPC: 0.23116 cumulative IPC: 0.28288 (Simulation time: 0 hr 4 min 25 sec) 
Heartbeat CPU  0 instructions:   50000000 cycles:   61323550 heartbeat IPC: 0.15305 cumulative IPC: 0.26076 (Simulation time: 0 hr 4 min 37 sec) 
Heartbeat CPU  0 instructions:   51000001 cycles:   64062272 heartbeat IPC: 0.36513 cumulative IPC: 0.26772 (Simulation time: 0 hr 4 min 44 sec) 
Heartbeat CPU  0 instructions:   52000000 cycles:   66544716 heartbeat IPC: 0.40283 cumulative IPC: 0.27542 (Simulation time: 0 hr 4 min 50 sec) 
Heartbeat CPU  0 instructions:   53000003 cycles:   70821755 heartbeat IPC: 0.23381 cumulative IPC: 0.27170 (Simulation time: 0 hr 4 min 59 sec) 
Heartbeat CPU  0 instructions:   54000001 cycles:   73284471 heartbeat IPC: 0.40605 cumulative IPC: 0.27827 (Simulation time: 0 hr 5 min 6 sec) 
Heartbeat CPU  0 instructions:   55000003 cycles:   75846233 heartbeat IPC: 0.39036 cumulative IPC: 0.28370 (Simulation time: 0 hr 5 min 13 sec) 
Heartbeat CPU  0 instructions:   56000000 cycles:   81630814 heartbeat IPC: 0.17287 cumulative IPC: 0.27277 (Simulation time: 0 hr 5 min 23 sec) 
Heartbeat CPU  0 instructions:   57000003 cycles:   87104095 heartbeat IPC: 0.18271 cumulative IPC: 0.26509 (Simulation time: 0 hr 5 min 33 sec) 
Heartbeat CPU  0 instructions:   58000000 cycles:   89754253 heartbeat IPC: 0.37733 cumulative IPC: 0.26954 (Simulation time: 0 hr 5 min 40 sec) 
Heartbeat CPU  0 instructions:   59000003 cycles:   94773165 heartbeat IPC: 0.19925 cumulative IPC: 0.26463 (Simulation time: 0 hr 5 min 50 sec) 
Heartbeat CPU  0 instructions:   60000000 cycles:   99886444 heartbeat IPC: 0.19557 cumulative IPC: 0.26004 (Simulation time: 0 hr 5 min 59 sec) 
Heartbeat CPU  0 instructions:   61000001 cycles:  102902194 heartbeat IPC: 0.33159 cumulative IPC: 0.26274 (Simulation time: 0 hr 6 min 7 sec) 
Heartbeat CPU  0 instructions:   62000001 cycles:  107391043 heartbeat IPC: 0.22277 cumulative IPC: 0.26061 (Simulation time: 0 hr 6 min 15 sec) 
Heartbeat CPU  0 instructions:   63000002 cycles:  110093076 heartbeat IPC: 0.37009 cumulative IPC: 0.26401 (Simulation time: 0 hr 6 min 22 sec) 
Heartbeat CPU  0 instructions:   64000000 cycles:  114658684 heartbeat IPC: 0.21903 cumulative IPC: 0.26177 (Simulation time: 0 hr 6 min 31 sec) 
Heartbeat CPU  0 instructions:   65000000 cycles:  117512410 heartbeat IPC: 0.35042 cumulative IPC: 0.26444 (Simulation time: 0 hr 6 min 38 sec) 
Heartbeat CPU  0 instructions:   66000001 cycles:  121800134 heartbeat IPC: 0.23322 cumulative IPC: 0.26309 (Simulation time: 0 hr 6 min 47 sec) 
Heartbeat CPU  0 instructions:   67000000 cycles:  124309515 heartbeat IPC: 0.39850 cumulative IPC: 0.26644 (Simulation time: 0 hr 6 min 54 sec) 
Heartbeat CPU  0 instructions:   68000000 cycles:  129741039 heartbeat IPC: 0.18411 cumulative IPC: 0.26225 (Simulation time: 0 hr 7 min 4 sec) 
Heartbeat CPU  0 instructions:   69000002 cycles:  133286460 heartbeat IPC: 0.28205 cumulative IPC: 0.26289 (Simulation time: 0 hr 7 min 12 sec) 
Heartbeat CPU  0 instructions:   70000001 cycles:  135919798 heartbeat IPC: 0.37975 cumulative IPC: 0.26561 (Simulation time: 0 hr 7 min 19 sec) 
Heartbeat CPU  0 instructions:   71000000 cycles:  139812015 heartbeat IPC: 0.25692 cumulative IPC: 0.26533 (Simulation time: 0 hr 7 min 27 sec) 
Heartbeat CPU  0 instructions:   72000000 cycles:  143536605 heartbeat IPC: 0.26849 cumulative IPC: 0.26542 (Simulation time: 0 hr 7 min 35 sec) 
Heartbeat CPU  0 instructions:   73000003 cycles:  147056198 heartbeat IPC: 0.28412 cumulative IPC: 0.26595 (Simulation time: 0 hr 7 min 43 sec) 
Heartbeat CPU  0 instructions:   74000002 cycles:  153804068 heartbeat IPC: 0.14819 cumulative IPC: 0.25988 (Simulation time: 0 hr 7 min 54 sec) 
Heartbeat CPU  0 instructions:   75000002 cycles:  157876303 heartbeat IPC: 0.24557 cumulative IPC: 0.25945 (Simulation time: 0 hr 8 min 3 sec) 
Heartbeat CPU  0 instructions:   76000000 cycles:  161362695 heartbeat IPC: 0.28683 cumulative IPC: 0.26014 (Simulation time: 0 hr 8 min 10 sec) 
Heartbeat CPU  0 instructions:   77000002 cycles:  167439406 heartbeat IPC: 0.16456 cumulative IPC: 0.25612 (Simulation time: 0 hr 8 min 21 sec) 
Heartbeat CPU  0 instructions:   78000002 cycles:  170064595 heartbeat IPC: 0.38092 cumulative IPC: 0.25834 (Simulation time: 0 hr 8 min 28 sec) 
Heartbeat CPU  0 instructions:   79000003 cycles:  175231382 heartbeat IPC: 0.19354 cumulative IPC: 0.25615 (Simulation time: 0 hr 8 min 37 sec) 
Heartbeat CPU  0 instructions:   80000000 cycles:  181527100 heartbeat IPC: 0.15884 cumulative IPC: 0.25228 (Simulation time: 0 hr 8 min 49 sec) 
Heartbeat CPU  0 instructions:   81000000 cycles:  184038773 heartbeat IPC: 0.39814 cumulative IPC: 0.25456 (Simulation time: 0 hr 8 min 56 sec) 
Heartbeat CPU  0 instructions:   82000003 cycles:  186425294 heartbeat IPC: 0.41902 cumulative IPC: 0.25696 (Simulation time: 0 hr 9 min 2 sec) 
Heartbeat CPU  0 instructions:   83000001 cycles:  191720713 heartbeat IPC: 0.18884 cumulative IPC: 0.25482 (Simulation time: 0 hr 9 min 13 sec) 
Heartbeat CPU  0 instructions:   84000000 cycles:  194623644 heartbeat IPC: 0.34448 cumulative IPC: 0.25634 (Simulation time: 0 hr 9 min 20 sec) 
Heartbeat CPU  0 instructions:   85000000 cycles:  198141577 heartbeat IPC: 0.28426 cumulative IPC: 0.25690 (Simulation time: 0 hr 9 min 27 sec) 
Heartbeat CPU  0 instructions:   86000002 cycles:  201447479 heartbeat IPC: 0.30249 cumulative IPC: 0.25774 (Simulation time: 0 hr 9 min 35 sec) 
Heartbeat CPU  0 instructions:   87000000 cycles:  204752928 heartbeat IPC: 0.30253 cumulative IPC: 0.25856 (Simulation time: 0 hr 9 min 43 sec) 
Heartbeat CPU  0 instructions:   88000000 cycles:  211168846 heartbeat IPC: 0.15586 cumulative IPC: 0.25506 (Simulation time: 0 hr 9 min 54 sec) 
Heartbeat CPU  0 instructions:   89000000 cycles:  214280227 heartbeat IPC: 0.32140 cumulative IPC: 0.25613 (Simulation time: 0 hr 10 min 1 sec) 
Heartbeat CPU  0 instructions:   90000000 cycles:  216926951 heartbeat IPC: 0.37783 cumulative IPC: 0.25779 (Simulation time: 0 hr 10 min 8 sec) 
Heartbeat CPU  0 instructions:   91000001 cycles:  221018871 heartbeat IPC: 0.24438 cumulative IPC: 0.25752 (Simulation time: 0 hr 10 min 17 sec) 
Heartbeat CPU  0 instructions:   92000000 cycles:  223509025 heartbeat IPC: 0.40158 cumulative IPC: 0.25931 (Simulation time: 0 hr 10 min 23 sec) 
Heartbeat CPU  0 instructions:   93000003 cycles:  228958562 heartbeat IPC: 0.18350 cumulative IPC: 0.25730 (Simulation time: 0 hr 10 min 33 sec) 
Heartbeat CPU  0 instructions:   94000000 cycles:  234822864 heartbeat IPC: 0.17052 cumulative IPC: 0.25490 (Simulation time: 0 hr 10 min 44 sec) 
Heartbeat CPU  0 instructions:   95000000 cycles:  237501835 heartbeat IPC: 0.37328 cumulative IPC: 0.25638 (Simulation time: 0 hr 10 min 51 sec) 
Heartbeat CPU  0 instructions:   96000000 cycles:  242673025 heartbeat IPC: 0.19338 cumulative IPC: 0.25489 (Simulation time: 0 hr 11 min 0 sec) 
Heartbeat CPU  0 instructions:   97000000 cycles:  249066346 heartbeat IPC: 0.15641 cumulative IPC: 0.25211 (Simulation time: 0 hr 11 min 12 sec) 
Heartbeat CPU  0 instructions:   98000002 cycles:  252244612 heartbeat IPC: 0.31464 cumulative IPC: 0.25298 (Simulation time: 0 hr 11 min 19 sec) 
Heartbeat CPU  0 instructions:   99000000 cycles:  255478594 heartbeat IPC: 0.30922 cumulative IPC: 0.25376 (Simulation time: 0 hr 11 min 27 sec) 
Heartbeat CPU  0 instructions:  100000000 cycles:  259698555 heartbeat IPC: 0.23697 cumulative IPC: 0.25346 (Simulation time: 0 hr 11 min 35 sec) 
Heartbeat CPU  0 instructions:  101000002 cycles:  263397276 heartbeat IPC: 0.27036 cumulative IPC: 0.25372 (Simulation time: 0 hr 11 min 43 sec) 
Heartbeat CPU  0 instructions:  102000000 cycles:  266474187 heartbeat IPC: 0.32500 cumulative IPC: 0.25462 (Simulation time: 0 hr 11 min 50 sec) 
Heartbeat CPU  0 instructions:  103000003 cycles:  270917209 heartbeat IPC: 0.22507 cumulative IPC: 0.25409 (Simulation time: 0 hr 11 min 59 sec) 
Heartbeat CPU  0 instructions:  104000000 cycles:  273664095 heartbeat IPC: 0.36405 cumulative IPC: 0.25530 (Simulation time: 0 hr 12 min 6 sec) 
Heartbeat CPU  0 instructions:  105000000 cycles:  278031695 heartbeat IPC: 0.22896 cumulative IPC: 0.25484 (Simulation time: 0 hr 12 min 15 sec) 
Heartbeat CPU  0 instructions:  106000000 cycles:  280668168 heartbeat IPC: 0.37929 cumulative IPC: 0.25612 (Simulation time: 0 hr 12 min 22 sec) 
Heartbeat CPU  0 instructions:  107000002 cycles:  283099916 heartbeat IPC: 0.41123 cumulative IPC: 0.25757 (Simulation time: 0 hr 12 min 29 sec) 
Heartbeat CPU  0 instructions:  108000000 cycles:  287160378 heartbeat IPC: 0.24628 cumulative IPC: 0.25739 (Simulation time: 0 hr 12 min 38 sec) 
Heartbeat CPU  0 instructions:  109000002 cycles:  291572443 heartbeat IPC: 0.22665 cumulative IPC: 0.25689 (Simulation time: 0 hr 12 min 47 sec) 
Heartbeat CPU  0 instructions:  110000000 cycles:  294597560 heartbeat IPC: 0.33057 cumulative IPC: 0.25771 (Simulation time: 0 hr 12 min 54 sec) 
Heartbeat CPU  0 instructions:  111000002 cycles:  299984155 heartbeat IPC: 0.18565 cumulative IPC: 0.25631 (Simulation time: 0 hr 13 min 5 sec) 
Heartbeat CPU  0 instructions:  112000000 cycles:  303868470 heartbeat IPC: 0.25745 cumulative IPC: 0.25632 (Simulation time: 0 hr 13 min 13 sec) 
Heartbeat CPU  0 instructions:  113000001 cycles:  306494867 heartbeat IPC: 0.38075 cumulative IPC: 0.25748 (Simulation time: 0 hr 13 min 20 sec) 
Heartbeat CPU  0 instructions:  114000002 cycles:  310808103 heartbeat IPC: 0.23184 cumulative IPC: 0.25709 (Simulation time: 0 hr 13 min 29 sec) 
Heartbeat CPU  0 instructions:  115000000 cycles:  313423788 heartbeat IPC: 0.38231 cumulative IPC: 0.25822 (Simulation time: 0 hr 13 min 36 sec) 
Heartbeat CPU  0 instructions:  116000000 cycles:  318645815 heartbeat IPC: 0.19150 cumulative IPC: 0.25704 (Simulation time: 0 hr 13 min 46 sec) 
Heartbeat CPU  0 instructions:  117000002 cycles:  321324574 heartbeat IPC: 0.37331 cumulative IPC: 0.25809 (Simulation time: 0 hr 13 min 52 sec) 
Heartbeat CPU  0 instructions:  118000001 cycles:  326083796 heartbeat IPC: 0.21012 cumulative IPC: 0.25733 (Simulation time: 0 hr 14 min 2 sec) 
Heartbeat CPU  0 instructions:  119000003 cycles:  331643789 heartbeat IPC: 0.17986 cumulative IPC: 0.25594 (Simulation time: 0 hr 14 min 12 sec) 
Heartbeat CPU  0 instructions:  120000000 cycles:  334717436 heartbeat IPC: 0.32535 cumulative IPC: 0.25662 (Simulation time: 0 hr 14 min 20 sec) 
Heartbeat CPU  0 instructions:  121000000 cycles:  337796604 heartbeat IPC: 0.32476 cumulative IPC: 0.25729 (Simulation time: 0 hr 14 min 27 sec) 
Heartbeat CPU  0 instructions:  122000000 cycles:  343742311 heartbeat IPC: 0.16819 cumulative IPC: 0.25564 (Simulation time: 0 hr 14 min 38 sec) 
Heartbeat CPU  0 instructions:  123000000 cycles:  346155500 heartbeat IPC: 0.41439 cumulative IPC: 0.25682 (Simulation time: 0 hr 14 min 45 sec) 
Heartbeat CPU  0 instructions:  124000000 cycles:  348571721 heartbeat IPC: 0.41387 cumulative IPC: 0.25799 (Simulation time: 0 hr 14 min 52 sec) 
Heartbeat CPU  0 instructions:  125000001 cycles:  354154825 heartbeat IPC: 0.17911 cumulative IPC: 0.25666 (Simulation time: 0 hr 15 min 2 sec) 
Heartbeat CPU  0 instructions:  126000000 cycles:  359175443 heartbeat IPC: 0.19918 cumulative IPC: 0.25580 (Simulation time: 0 hr 15 min 12 sec) 
Heartbeat CPU  0 instructions:  127000000 cycles:  362317548 heartbeat IPC: 0.31826 cumulative IPC: 0.25638 (Simulation time: 0 hr 15 min 20 sec) 
Heartbeat CPU  0 instructions:  128000000 cycles:  366028696 heartbeat IPC: 0.26946 cumulative IPC: 0.25652 (Simulation time: 0 hr 15 min 28 sec) 
Heartbeat CPU  0 instructions:  129000002 cycles:  371886094 heartbeat IPC: 0.17072 cumulative IPC: 0.25508 (Simulation time: 0 hr 15 min 39 sec) 
Heartbeat CPU  0 instructions:  130000002 cycles:  375764498 heartbeat IPC: 0.25784 cumulative IPC: 0.25511 (Simulation time: 0 hr 15 min 47 sec) 
Heartbeat CPU  0 instructions:  131000001 cycles:  379583989 heartbeat IPC: 0.26181 cumulative IPC: 0.25518 (Simulation time: 0 hr 15 min 55 sec) 
Heartbeat CPU  0 instructions:  132000000 cycles:  383943125 heartbeat IPC: 0.22940 cumulative IPC: 0.25487 (Simulation time: 0 hr 16 min 4 sec) 
Heartbeat CPU  0 instructions:  133000000 cycles:  386555840 heartbeat IPC: 0.38274 cumulative IPC: 0.25579 (Simulation time: 0 hr 16 min 11 sec) 
Heartbeat CPU  0 instructions:  134000002 cycles:  392375743 heartbeat IPC: 0.17182 cumulative IPC: 0.25447 (Simulation time: 0 hr 16 min 22 sec) 
Heartbeat CPU  0 instructions:  135000001 cycles:  397833790 heartbeat IPC: 0.18322 cumulative IPC: 0.25343 (Simulation time: 0 hr 16 min 32 sec) 
Heartbeat CPU  0 instructions:  136000000 cycles:  400220643 heartbeat IPC: 0.41896 cumulative IPC: 0.25448 (Simulation time: 0 hr 16 min 39 sec) 
Heartbeat CPU  0 instructions:  137000000 cycles:  404291351 heartbeat IPC: 0.24566 cumulative IPC: 0.25438 (Simulation time: 0 hr 16 min 48 sec) 
Heartbeat CPU  0 instructions:  138000002 cycles:  411128963 heartbeat IPC: 0.14625 cumulative IPC: 0.25248 (Simulation time: 0 hr 17 min 0 sec) 
Heartbeat CPU  0 instructions:  139000002 cycles:  415047054 heartbeat IPC: 0.25523 cumulative IPC: 0.25250 (Simulation time: 0 hr 17 min 8 sec) 
Heartbeat CPU  0 instructions:  140000000 cycles:  418201892 heartbeat IPC: 0.31697 cumulative IPC: 0.25302 (Simulation time: 0 hr 17 min 15 sec) 
Finished CPU 0 instructions: 100000000 cycles: 395227530 cumulative IPC: 0.25302 (Simulation time: 0 hr 17 min 15 sec) 

ChampSim completed all CPUs

[ROI Statistics]
Core_0_instructions 100000000
Core_0_cycles 395227530
Core_0_IPC 0.25302

Core_0_branch_prediction_accuracy 98.51744
Core_0_branch_MPKI 1.68572
Core_0_average_ROB_occupancy_at_mispredict 173.10342

Core_0_L1D_total_access 46175938
Core_0_L1D_total_hit 41252443
Core_0_L1D_total_miss 4923495
Core_0_L1D_loads 22542611
Core_0_L1D_load_hit 17851969
Core_0_L1D_load_miss 4690642
Core_0_L1D_RFOs 23633327
Core_0_L1D_RFO_hit 23400474
Core_0_L1D_RFO_miss 232853
Core_0_L1D_prefetches 0
Core_0_L1D_prefetch_hit 0
Core_0_L1D_prefetch_miss 0
Core_0_L1D_writebacks 0
Core_0_L1D_writeback_hit 0
Core_0_L1D_writeback_miss 0
Core_0_L1D_prefetch_requested 0
Core_0_L1D_prefetch_dropped 0
Core_0_L1D_prefetch_issued 0
Core_0_L1D_prefetch_filled 0
Core_0_L1D_prefetch_useful 0
Core_0_L1D_prefetch_useless 0
Core_0_L1D_prefetch_late 0
Core_0_L1D_average_miss_latency 152.34538

Core_0_L1D_rq_access 33377129
Core_0_L1D_rq_forward 0
Core_0_L1D_rq_merged 10284479
Core_0_L1D_rq_to_cache 23092650
Core_0_L1D_rq_full 0

Core_0_L1D_wq_access 24899036
Core_0_L1D_wq_forward 0
Core_0_L1D_wq_merged 610659
Core_0_L1D_wq_to_cache 24288377
Core_0_L1D_wq_full 0

Core_0_L1D_pq_access 0
Core_0_L1D_pq_forward 0
Core_0_L1D_pq_merged 0
Core_0_L1D_pq_to_cache 0
Core_0_L1D_pq_full 0

Core_0_L1D_acc_epochs 396161
Core_0_L1D_acc_level_0 396161
Core_0_L1D_acc_level_1 0
Core_0_L1D_acc_level_2 0
Core_0_L1D_acc_level_3 0
Core_0_L1D_acc_level_4 0
Core_0_L1D_acc_level_5 0
Core_0_L1D_acc_level_6 0
Core_0_L1D_acc_level_7 0
Core_0_L1D_acc_level_8 0
Core_0_L1D_acc_level_9 0

Core_0_L1I_total_access 31474980
Core_0_L1I_total_hit 31474980
Core_0_L1I_total_miss 0
Core_0_L1I_loads 31474980
Core_0_L1I_load_hit 31474980
Core_0_L1I_load_miss 0
Core_0_L1I_RFOs 0
Core_0_L1I_RFO_hit 0
Core_0_L1I_RFO_miss 0
Core_0_L1I_prefetches 0
Core_0_L1I_prefetch_hit 0
Core_0_L1I_prefetch_miss 0
Core_0_L1I_writebacks 0
Core_0_L1I_writeback_hit 0
Core_0_L1I_writeback_miss 0
Core_0_L1I_prefetch_requested 0
Core_0_L1I_prefetch_dropped 0
Core_0_L1I_prefetch_issued 0
Core_0_L1I_prefetch_filled 0
Core_0_L1I_prefetch_useful 0
Core_0_L1I_prefetch_useless 0
Core_0_L1I_prefetch_late 0
Core_0_L1I_average_miss_latency -nan

Core_0_L1I_rq_access 100000080
Core_0_L1I_rq_forward 0
Core_0_L1I_rq_merged 68525100
Core_0_L1I_rq_to_cache 31474980
Core_0_L1I_rq_full 0

Core_0_L1I_wq_access 0
Core_0_L1I_wq_forward 0
Core_0_L1I_wq_merged 0
Core_0_L1I_wq_to_cache 0
Core_0_L1I_wq_full 0

Core_0_L1I_pq_access 0
Core_0_L1I_pq_forward 0
Core_0_L1I_pq_merged 0
Core_0_L1I_pq_to_cache 0
Core_0_L1I_pq_full 0

Core_0_L1I_acc_epochs 396161
Core_0_L1I_acc_level_0 396161
Core_0_L1I_acc_level_1 0
Core_0_L1I_acc_level_2 0
Core_0_L1I_acc_level_3 0
Core_0_L1I_acc_level_4 0
Core_0_L1I_acc_level_5 0
Core_0_L1I_acc_level_6 0
Core_0_L1I_acc_level_7 0
Core_0_L1I_acc_level_8 0
Core_0_L1I_acc_level_9 0

Core_0_L2C_total_access 5474693
Core_0_L2C_total_hit 682519
Core_0_L2C_total_miss 4792174
Core_0_L2C_loads 4690618
Core_0_L2C_load_hit 125783
Core_0_L2C_load_miss 4564835
Core_0_L2C_RFOs 232840
Core_0_L2C_RFO_hit 8635
Core_0_L2C_RFO_miss 224205
Core_0_L2C_prefetches 0
Core_0_L2C_prefetch_hit 0
Core_0_L2C_prefetch_miss 0
Core_0_L2C_writebacks 551235
Core_0_L2C_writeback_hit 548101
Core_0_L2C_writeback_miss 3134
Core_0_L2C_prefetch_requested 0
Core_0_L2C_prefetch_dropped 0
Core_0_L2C_prefetch_issued 0
Core_0_L2C_prefetch_filled 0
Core_0_L2C_prefetch_useful 0
Core_0_L2C_prefetch_useless 0
Core_0_L2C_prefetch_late 0
Core_0_L2C_average_miss_latency 140.81943

Core_0_L2C_rq_access 4923495
Core_0_L2C_rq_forward 0
Core_0_L2C_rq_merged 0
Core_0_L2C_rq_to_cache 4923458
Core_0_L2C_rq_full 0

Core_0_L2C_wq_access 551235
Core_0_L2C_wq_forward 37
Core_0_L2C_wq_merged 0
Core_0_L2C_wq_to_cache 551235
Core_0_L2C_wq_full 0

Core_0_L2C_pq_access 0
Core_0_L2C_pq_forward 0
Core_0_L2C_pq_merged 0
Core_0_L2C_pq_to_cache 0
Core_0_L2C_pq_full 0

Core_0_L2C_acc_epochs 396161
Core_0_L2C_acc_level_0 396161
Core_0_L2C_acc_level_1 0
Core_0_L2C_acc_level_2 0
Core_0_L2C_acc_level_3 0
Core_0_L2C_acc_level_4 0
Core_0_L2C_acc_level_5 0
Core_0_L2C_acc_level_6 0
Core_0_L2C_acc_level_7 0
Core_0_L2C_acc_level_8 0
Core_0_L2C_acc_level_9 0

Core_0_LLC_total_access 5243200
Core_0_LLC_total_hit 1151607
Core_0_LLC_total_miss 4091593
Core_0_LLC_loads 4564835
Core_0_LLC_load_hit 988079
Core_0_LLC_load_miss 3576756
Core_0_LLC_RFOs 224205
Core_0_LLC_RFO_hit 668
Core_0_LLC_RFO_miss 223537
Core_0_LLC_prefetches 0
Core_0_LLC_prefetch_hit 0
Core_0_LLC_prefetch_miss 0
Core_0_LLC_writebacks 454160
Core_0_LLC_writeback_hit 162860
Core_0_LLC_writeback_miss 291300
Core_0_LLC_prefetch_requested 0
Core_0_LLC_prefetch_dropped 0
Core_0_LLC_prefetch_issued 0
Core_0_LLC_prefetch_filled 0
Core_0_LLC_prefetch_useful 0
Core_0_LLC_prefetch_useless 0
Core_0_LLC_prefetch_late 0
Core_0_LLC_average_miss_latency 127.69050

Core_0_LLC_rq_access 4789040
Core_0_LLC_rq_forward 0
Core_0_LLC_rq_merged 0
Core_0_LLC_rq_to_cache 4789040
Core_0_LLC_rq_full 0

Core_0_LLC_wq_access 454160
Core_0_LLC_wq_forward 0
Core_0_LLC_wq_merged 0
Core_0_LLC_wq_to_cache 454160
Core_0_LLC_wq_full 0

Core_0_LLC_pq_access 0
Core_0_LLC_pq_forward 0
Core_0_LLC_pq_merged 0
Core_0_LLC_pq_to_cache 0
Core_0_LLC_pq_full 0

Core_0_LLC_acc_epochs 408401
Core_0_LLC_acc_level_0 408401
Core_0_LLC_acc_level_1 0
Core_0_LLC_acc_level_2 0
Core_0_LLC_acc_level_3 0
Core_0_LLC_acc_level_4 0
Core_0_LLC_acc_level_5 0
Core_0_LLC_acc_level_6 0
Core_0_LLC_acc_level_7 0
Core_0_LLC_acc_level_8 0
Core_0_LLC_acc_level_9 0

Core_0_major_page_fault 0
Core_0_minor_page_fault 27628

Channel_0_RQ_row_buffer_hit 2120296
Channel_0_RQ_row_buffer_miss 1679996
Channel_0_WQ_row_buffer_hit 159287
Channel_0_WQ_row_buffer_miss 284028
Channel_0_WQ_full 0
Channel_0_dbus_congested 1074769

avg_congested_cycle 9

DRAM_bw_pochs 1633602
DRAM_bw_level_0 1085678
DRAM_bw_level_1 289206
DRAM_bw_level_2 194238
DRAM_bw_level_3 64480
