*************************************************
   ChampSim Multicore Out-of-Order Simulator
   Last compiled: Feb  6 2025 20:33:19
*************************************************
parsing config file: /home/wzz/Pythia/config/spp_dev2.ini

trace_0 /home/wzz/Pythia/traces/619.lbm_s-2676B.champsimtrace.xz
adding L2C_PREFETCHER: SPP_dev2
Initialize SIGNATURE TABLE
ST_SET: 1
ST_WAY: 256
ST_TAG_BIT: 16
ST_TAG_MASK: ffff

Initialize PATTERN TABLE
PT_SET: 512
PT_WAY: 4
SIG_DELTA_BIT: 7
C_SIG_BIT: 4
C_DELTA_BIT: 4

Initialize PREFETCH FILTER
FILTER_SET: 1024
fill_threshold: 90
pf_threshold: 40

Initialize SHIP state
warmup_instructions 40000000
simulation_instructions 100000000
champsim_seed 279
measure_ipc 0
measure_ipc_epoch 1000
measure_dram_bw 1
measure_dram_bw_epoch 256
measure_cache_acc 1
measure_cache_acc_epoch 1024
l1d_perfect 0
l2c_perfect 0
llc_perfect 0
l1d_semi_perfect 0
l2c_semi_perfect 0
llc_semi_perfect 0
semi_perfect_cache_page_buffer_size 64

num_cpus 1
cpu_freq 4000
dram_io_freq 2400
page_size 4096
block_size 64
max_read_per_cycle 8
max_fill_per_cycle 1
dram_channels 1
log2_dram_channels 0
dram_ranks 1
dram_banks 8
dram_rows 65536
dram_columns 128
dram_row_size 8
dram_size 4096
dram_pages 1048576

fetch_width 6
decode_width 6
exec_width 4
lq_width 2
sq_width 2
retire_width 4
scheduler_size 128
branch_mispredict_penalty 20
rob_size 256
lq_size 72
sq_size 56
num_instr_destinations_sparc 4
num_instr_destinations 2
num_instr_sources 4

itlb_set 16
itlb_way 8
itlb_rq_size 16
itlb_wq_size 16
itlb_pq_size 0
itlb_mshr_size 8
itlb_latency 1

dtlb_set 16
dtlb_way 4
dtlb_rq_size 16
dtlb_wq_size 16
dtlb_pq_size 0
dtlb_mshr_size 8
dtlb_latency 1

stlb_set 128
stlb_way 12
stlb_rq_size 32
stlb_wq_size 32
stlb_pq_size 0
stlb_mshr_size 16
stlb_latency 8

l1i_size 32
l1i_set 64
l1i_way 8
l1i_rq_size 64
l1i_wq_size 64
l1i_pq_size 8
l1i_mshr_size 8
l1i_latency 1

l1d_size 32
l1d_set 64
l1d_way 8
l1d_rq_size 64
l1d_wq_size 64
l1d_pq_size 8
l1d_mshr_size 16
l1d_latency 4

l2c_size 256
l2c_set 512
l2c_way 8
l2c_rq_size 32
l2c_wq_size 32
l2c_pq_size 32
l2c_mshr_size 32
l2c_latency 10

llc_size 2048
llc_set 2048
llc_way 16
llc_rq_size 32
llc_wq_size 32
llc_pq_size 32
llc_mshr_size 64
llc_latency 20

dram_channel_width 8
dram_wq_size 64
dram_rq_size 64
tRP 15
tRCD 15
tCAS 12.5
dram_dbus_turn_around_time 30
dram_write_high_wm 56
dram_write_low_wm 48
min_dram_writes_per_switch 16
dram_mtps 2400
dram_dbus_return_time 13


Heartbeat CPU  0 instructions:    1000002 cycles:     410158 heartbeat IPC: 2.43809 cumulative IPC: 2.43809 (Simulation time: 0 hr 0 min 5 sec) 
Heartbeat CPU  0 instructions:    2000002 cycles:     818541 heartbeat IPC: 2.44868 cumulative IPC: 2.44337 (Simulation time: 0 hr 0 min 10 sec) 
Heartbeat CPU  0 instructions:    3000003 cycles:    1242976 heartbeat IPC: 2.35608 cumulative IPC: 2.41356 (Simulation time: 0 hr 0 min 16 sec) 
Heartbeat CPU  0 instructions:    4000000 cycles:    1671637 heartbeat IPC: 2.33284 cumulative IPC: 2.39286 (Simulation time: 0 hr 0 min 21 sec) 
Heartbeat CPU  0 instructions:    5000000 cycles:    2094517 heartbeat IPC: 2.36474 cumulative IPC: 2.38719 (Simulation time: 0 hr 0 min 26 sec) 
Heartbeat CPU  0 instructions:    6000003 cycles:    2519050 heartbeat IPC: 2.35554 cumulative IPC: 2.38185 (Simulation time: 0 hr 0 min 32 sec) 
Heartbeat CPU  0 instructions:    7000001 cycles:    2942921 heartbeat IPC: 2.35920 cumulative IPC: 2.37859 (Simulation time: 0 hr 0 min 37 sec) 
Heartbeat CPU  0 instructions:    8000000 cycles:    3365043 heartbeat IPC: 2.36898 cumulative IPC: 2.37738 (Simulation time: 0 hr 0 min 42 sec) 
Heartbeat CPU  0 instructions:    9000001 cycles:    3784644 heartbeat IPC: 2.38322 cumulative IPC: 2.37803 (Simulation time: 0 hr 0 min 48 sec) 
Heartbeat CPU  0 instructions:   10000002 cycles:    4194055 heartbeat IPC: 2.44254 cumulative IPC: 2.38433 (Simulation time: 0 hr 0 min 53 sec) 
Heartbeat CPU  0 instructions:   11000003 cycles:    4606395 heartbeat IPC: 2.42519 cumulative IPC: 2.38799 (Simulation time: 0 hr 0 min 58 sec) 
Heartbeat CPU  0 instructions:   12000000 cycles:    5030940 heartbeat IPC: 2.35546 cumulative IPC: 2.38524 (Simulation time: 0 hr 1 min 4 sec) 
Heartbeat CPU  0 instructions:   13000000 cycles:    5453188 heartbeat IPC: 2.36828 cumulative IPC: 2.38393 (Simulation time: 0 hr 1 min 9 sec) 
Heartbeat CPU  0 instructions:   14000000 cycles:    5876822 heartbeat IPC: 2.36053 cumulative IPC: 2.38224 (Simulation time: 0 hr 1 min 14 sec) 
Heartbeat CPU  0 instructions:   15000003 cycles:    6297676 heartbeat IPC: 2.37613 cumulative IPC: 2.38183 (Simulation time: 0 hr 1 min 19 sec) 
Heartbeat CPU  0 instructions:   16000000 cycles:    6717576 heartbeat IPC: 2.38151 cumulative IPC: 2.38181 (Simulation time: 0 hr 1 min 25 sec) 
Heartbeat CPU  0 instructions:   17000003 cycles:    7138185 heartbeat IPC: 2.37751 cumulative IPC: 2.38156 (Simulation time: 0 hr 1 min 30 sec) 
Heartbeat CPU  0 instructions:   18000003 cycles:    7556379 heartbeat IPC: 2.39123 cumulative IPC: 2.38209 (Simulation time: 0 hr 1 min 35 sec) 
Heartbeat CPU  0 instructions:   19000003 cycles:    7966205 heartbeat IPC: 2.44006 cumulative IPC: 2.38508 (Simulation time: 0 hr 1 min 40 sec) 
Heartbeat CPU  0 instructions:   20000000 cycles:    8377389 heartbeat IPC: 2.43199 cumulative IPC: 2.38738 (Simulation time: 0 hr 1 min 46 sec) 
Heartbeat CPU  0 instructions:   21000001 cycles:    8796535 heartbeat IPC: 2.38581 cumulative IPC: 2.38730 (Simulation time: 0 hr 1 min 51 sec) 
Heartbeat CPU  0 instructions:   22000002 cycles:    9217001 heartbeat IPC: 2.37832 cumulative IPC: 2.38689 (Simulation time: 0 hr 1 min 56 sec) 
Heartbeat CPU  0 instructions:   23000001 cycles:    9637159 heartbeat IPC: 2.38005 cumulative IPC: 2.38660 (Simulation time: 0 hr 2 min 1 sec) 
Heartbeat CPU  0 instructions:   24000000 cycles:   10051663 heartbeat IPC: 2.41252 cumulative IPC: 2.38766 (Simulation time: 0 hr 2 min 7 sec) 
Heartbeat CPU  0 instructions:   25000000 cycles:   10473626 heartbeat IPC: 2.36988 cumulative IPC: 2.38695 (Simulation time: 0 hr 2 min 12 sec) 
Heartbeat CPU  0 instructions:   26000001 cycles:   10891301 heartbeat IPC: 2.39421 cumulative IPC: 2.38723 (Simulation time: 0 hr 2 min 17 sec) 
Heartbeat CPU  0 instructions:   27000001 cycles:   11312212 heartbeat IPC: 2.37580 cumulative IPC: 2.38680 (Simulation time: 0 hr 2 min 23 sec) 
Heartbeat CPU  0 instructions:   28000000 cycles:   11724146 heartbeat IPC: 2.42757 cumulative IPC: 2.38823 (Simulation time: 0 hr 2 min 28 sec) 
Heartbeat CPU  0 instructions:   29000000 cycles:   12131235 heartbeat IPC: 2.45647 cumulative IPC: 2.39052 (Simulation time: 0 hr 2 min 33 sec) 
Heartbeat CPU  0 instructions:   30000003 cycles:   12545369 heartbeat IPC: 2.41468 cumulative IPC: 2.39132 (Simulation time: 0 hr 2 min 39 sec) 
Heartbeat CPU  0 instructions:   31000001 cycles:   12964727 heartbeat IPC: 2.38459 cumulative IPC: 2.39110 (Simulation time: 0 hr 2 min 44 sec) 
Heartbeat CPU  0 instructions:   32000000 cycles:   13376715 heartbeat IPC: 2.42725 cumulative IPC: 2.39222 (Simulation time: 0 hr 2 min 49 sec) 
Heartbeat CPU  0 instructions:   33000001 cycles:   13794968 heartbeat IPC: 2.39090 cumulative IPC: 2.39218 (Simulation time: 0 hr 2 min 55 sec) 
Heartbeat CPU  0 instructions:   34000003 cycles:   14208132 heartbeat IPC: 2.42035 cumulative IPC: 2.39300 (Simulation time: 0 hr 3 min 0 sec) 
Heartbeat CPU  0 instructions:   35000000 cycles:   14619243 heartbeat IPC: 2.43243 cumulative IPC: 2.39410 (Simulation time: 0 hr 3 min 5 sec) 
Heartbeat CPU  0 instructions:   36000000 cycles:   15033556 heartbeat IPC: 2.41363 cumulative IPC: 2.39464 (Simulation time: 0 hr 3 min 10 sec) 
Heartbeat CPU  0 instructions:   37000000 cycles:   15454337 heartbeat IPC: 2.37653 cumulative IPC: 2.39415 (Simulation time: 0 hr 3 min 16 sec) 
Heartbeat CPU  0 instructions:   38000001 cycles:   15863592 heartbeat IPC: 2.44347 cumulative IPC: 2.39542 (Simulation time: 0 hr 3 min 21 sec) 
Heartbeat CPU  0 instructions:   39000002 cycles:   16271796 heartbeat IPC: 2.44976 cumulative IPC: 2.39679 (Simulation time: 0 hr 3 min 26 sec) 
Heartbeat CPU  0 instructions:   40000000 cycles:   16680709 heartbeat IPC: 2.44550 cumulative IPC: 2.39798 (Simulation time: 0 hr 3 min 31 sec) 

Warmup complete CPU  0 instructions:   40000001 cycles:   16680710 (Simulation time: 0 hr 3 min 31 sec) 

Heartbeat CPU  0 instructions:   41000001 cycles:   18986393 heartbeat IPC: 0.43371 cumulative IPC: 0.43371 (Simulation time: 0 hr 3 min 40 sec) 
Heartbeat CPU  0 instructions:   42000001 cycles:   21102173 heartbeat IPC: 0.47264 cumulative IPC: 0.45234 (Simulation time: 0 hr 3 min 49 sec) 
Heartbeat CPU  0 instructions:   43000002 cycles:   23519954 heartbeat IPC: 0.41360 cumulative IPC: 0.43865 (Simulation time: 0 hr 3 min 58 sec) 
Heartbeat CPU  0 instructions:   44000000 cycles:   25523281 heartbeat IPC: 0.49917 cumulative IPC: 0.45236 (Simulation time: 0 hr 4 min 6 sec) 
Heartbeat CPU  0 instructions:   45000003 cycles:   27701143 heartbeat IPC: 0.45917 cumulative IPC: 0.45370 (Simulation time: 0 hr 4 min 14 sec) 
Heartbeat CPU  0 instructions:   46000000 cycles:   29654111 heartbeat IPC: 0.51204 cumulative IPC: 0.46248 (Simulation time: 0 hr 4 min 23 sec) 
Heartbeat CPU  0 instructions:   47000002 cycles:   32147028 heartbeat IPC: 0.40114 cumulative IPC: 0.45260 (Simulation time: 0 hr 4 min 32 sec) 
Heartbeat CPU  0 instructions:   48000000 cycles:   34370144 heartbeat IPC: 0.44982 cumulative IPC: 0.45225 (Simulation time: 0 hr 4 min 41 sec) 
Heartbeat CPU  0 instructions:   49000002 cycles:   36389156 heartbeat IPC: 0.49529 cumulative IPC: 0.45666 (Simulation time: 0 hr 4 min 49 sec) 
Heartbeat CPU  0 instructions:   50000002 cycles:   38429960 heartbeat IPC: 0.49000 cumulative IPC: 0.45979 (Simulation time: 0 hr 4 min 57 sec) 
Heartbeat CPU  0 instructions:   51000000 cycles:   40470221 heartbeat IPC: 0.49013 cumulative IPC: 0.46239 (Simulation time: 0 hr 5 min 5 sec) 
Heartbeat CPU  0 instructions:   52000000 cycles:   42461676 heartbeat IPC: 0.50215 cumulative IPC: 0.46546 (Simulation time: 0 hr 5 min 14 sec) 
Heartbeat CPU  0 instructions:   53000001 cycles:   44700690 heartbeat IPC: 0.44663 cumulative IPC: 0.46395 (Simulation time: 0 hr 5 min 22 sec) 
Heartbeat CPU  0 instructions:   54000003 cycles:   46918660 heartbeat IPC: 0.45086 cumulative IPC: 0.46299 (Simulation time: 0 hr 5 min 31 sec) 
Heartbeat CPU  0 instructions:   55000000 cycles:   49132383 heartbeat IPC: 0.45173 cumulative IPC: 0.46223 (Simulation time: 0 hr 5 min 40 sec) 
Heartbeat CPU  0 instructions:   56000000 cycles:   51034002 heartbeat IPC: 0.52587 cumulative IPC: 0.46575 (Simulation time: 0 hr 5 min 48 sec) 
Heartbeat CPU  0 instructions:   57000003 cycles:   52855767 heartbeat IPC: 0.54892 cumulative IPC: 0.46994 (Simulation time: 0 hr 5 min 55 sec) 
Heartbeat CPU  0 instructions:   58000002 cycles:   55231641 heartbeat IPC: 0.42090 cumulative IPC: 0.46691 (Simulation time: 0 hr 6 min 4 sec) 
Heartbeat CPU  0 instructions:   59000003 cycles:   57195896 heartbeat IPC: 0.50910 cumulative IPC: 0.46896 (Simulation time: 0 hr 6 min 12 sec) 
Heartbeat CPU  0 instructions:   60000000 cycles:   59178805 heartbeat IPC: 0.50431 cumulative IPC: 0.47061 (Simulation time: 0 hr 6 min 21 sec) 
Heartbeat CPU  0 instructions:   61000003 cycles:   61020674 heartbeat IPC: 0.54293 cumulative IPC: 0.47361 (Simulation time: 0 hr 6 min 29 sec) 
Heartbeat CPU  0 instructions:   62000001 cycles:   62981140 heartbeat IPC: 0.51008 cumulative IPC: 0.47516 (Simulation time: 0 hr 6 min 37 sec) 
Heartbeat CPU  0 instructions:   63000003 cycles:   64881017 heartbeat IPC: 0.52635 cumulative IPC: 0.47718 (Simulation time: 0 hr 6 min 45 sec) 
Heartbeat CPU  0 instructions:   64000000 cycles:   67010834 heartbeat IPC: 0.46952 cumulative IPC: 0.47685 (Simulation time: 0 hr 6 min 53 sec) 
Heartbeat CPU  0 instructions:   65000003 cycles:   69062576 heartbeat IPC: 0.48739 cumulative IPC: 0.47726 (Simulation time: 0 hr 7 min 2 sec) 
Heartbeat CPU  0 instructions:   66000003 cycles:   70821775 heartbeat IPC: 0.56844 cumulative IPC: 0.48023 (Simulation time: 0 hr 7 min 10 sec) 
Heartbeat CPU  0 instructions:   67000002 cycles:   72784884 heartbeat IPC: 0.50940 cumulative IPC: 0.48125 (Simulation time: 0 hr 7 min 18 sec) 
Heartbeat CPU  0 instructions:   68000000 cycles:   74572252 heartbeat IPC: 0.55948 cumulative IPC: 0.48366 (Simulation time: 0 hr 7 min 25 sec) 
Heartbeat CPU  0 instructions:   69000000 cycles:   76796196 heartbeat IPC: 0.44965 cumulative IPC: 0.48240 (Simulation time: 0 hr 7 min 34 sec) 
Heartbeat CPU  0 instructions:   70000000 cycles:   78932785 heartbeat IPC: 0.46804 cumulative IPC: 0.48191 (Simulation time: 0 hr 7 min 43 sec) 
Heartbeat CPU  0 instructions:   71000000 cycles:   80693901 heartbeat IPC: 0.56782 cumulative IPC: 0.48428 (Simulation time: 0 hr 7 min 50 sec) 
Heartbeat CPU  0 instructions:   72000000 cycles:   82622821 heartbeat IPC: 0.51842 cumulative IPC: 0.48527 (Simulation time: 0 hr 7 min 59 sec) 
Heartbeat CPU  0 instructions:   73000000 cycles:   84412856 heartbeat IPC: 0.55865 cumulative IPC: 0.48721 (Simulation time: 0 hr 8 min 6 sec) 
Heartbeat CPU  0 instructions:   74000000 cycles:   86328216 heartbeat IPC: 0.52210 cumulative IPC: 0.48817 (Simulation time: 0 hr 8 min 14 sec) 
Heartbeat CPU  0 instructions:   75000001 cycles:   87861518 heartbeat IPC: 0.65219 cumulative IPC: 0.49171 (Simulation time: 0 hr 8 min 22 sec) 
Heartbeat CPU  0 instructions:   76000000 cycles:   89933797 heartbeat IPC: 0.48256 cumulative IPC: 0.49145 (Simulation time: 0 hr 8 min 30 sec) 
Heartbeat CPU  0 instructions:   77000000 cycles:   91859666 heartbeat IPC: 0.51925 cumulative IPC: 0.49216 (Simulation time: 0 hr 8 min 38 sec) 
Heartbeat CPU  0 instructions:   78000002 cycles:   93751076 heartbeat IPC: 0.52871 cumulative IPC: 0.49306 (Simulation time: 0 hr 8 min 46 sec) 
Heartbeat CPU  0 instructions:   79000000 cycles:   95647806 heartbeat IPC: 0.52722 cumulative IPC: 0.49388 (Simulation time: 0 hr 8 min 54 sec) 
Heartbeat CPU  0 instructions:   80000000 cycles:   97221106 heartbeat IPC: 0.63561 cumulative IPC: 0.49665 (Simulation time: 0 hr 9 min 1 sec) 
Heartbeat CPU  0 instructions:   81000003 cycles:   99026018 heartbeat IPC: 0.55405 cumulative IPC: 0.49790 (Simulation time: 0 hr 9 min 9 sec) 
Heartbeat CPU  0 instructions:   82000003 cycles:  101317518 heartbeat IPC: 0.43640 cumulative IPC: 0.49624 (Simulation time: 0 hr 9 min 18 sec) 
Heartbeat CPU  0 instructions:   83000001 cycles:  103019677 heartbeat IPC: 0.58749 cumulative IPC: 0.49804 (Simulation time: 0 hr 9 min 26 sec) 
Heartbeat CPU  0 instructions:   84000000 cycles:  104742889 heartbeat IPC: 0.58031 cumulative IPC: 0.49965 (Simulation time: 0 hr 9 min 33 sec) 
Heartbeat CPU  0 instructions:   85000000 cycles:  106445059 heartbeat IPC: 0.58749 cumulative IPC: 0.50131 (Simulation time: 0 hr 9 min 41 sec) 
Heartbeat CPU  0 instructions:   86000001 cycles:  108114295 heartbeat IPC: 0.59908 cumulative IPC: 0.50310 (Simulation time: 0 hr 9 min 49 sec) 
Heartbeat CPU  0 instructions:   87000003 cycles:  109750347 heartbeat IPC: 0.61123 cumulative IPC: 0.50500 (Simulation time: 0 hr 9 min 56 sec) 
Heartbeat CPU  0 instructions:   88000000 cycles:  111555541 heartbeat IPC: 0.55396 cumulative IPC: 0.50593 (Simulation time: 0 hr 10 min 4 sec) 
Heartbeat CPU  0 instructions:   89000003 cycles:  113491531 heartbeat IPC: 0.51653 cumulative IPC: 0.50614 (Simulation time: 0 hr 10 min 12 sec) 
Heartbeat CPU  0 instructions:   90000000 cycles:  115209799 heartbeat IPC: 0.58198 cumulative IPC: 0.50746 (Simulation time: 0 hr 10 min 20 sec) 
Heartbeat CPU  0 instructions:   91000001 cycles:  117025490 heartbeat IPC: 0.55076 cumulative IPC: 0.50825 (Simulation time: 0 hr 10 min 28 sec) 
Heartbeat CPU  0 instructions:   92000000 cycles:  118786175 heartbeat IPC: 0.56796 cumulative IPC: 0.50928 (Simulation time: 0 hr 10 min 35 sec) 
Heartbeat CPU  0 instructions:   93000000 cycles:  120277155 heartbeat IPC: 0.67070 cumulative IPC: 0.51160 (Simulation time: 0 hr 10 min 43 sec) 
Heartbeat CPU  0 instructions:   94000003 cycles:  122125437 heartbeat IPC: 0.54104 cumulative IPC: 0.51212 (Simulation time: 0 hr 10 min 51 sec) 
Heartbeat CPU  0 instructions:   95000003 cycles:  123919305 heartbeat IPC: 0.55745 cumulative IPC: 0.51288 (Simulation time: 0 hr 10 min 59 sec) 
Heartbeat CPU  0 instructions:   96000000 cycles:  125421262 heartbeat IPC: 0.66580 cumulative IPC: 0.51499 (Simulation time: 0 hr 11 min 6 sec) 
Heartbeat CPU  0 instructions:   97000002 cycles:  127188049 heartbeat IPC: 0.56600 cumulative IPC: 0.51580 (Simulation time: 0 hr 11 min 14 sec) 
Heartbeat CPU  0 instructions:   98000001 cycles:  128877218 heartbeat IPC: 0.59201 cumulative IPC: 0.51695 (Simulation time: 0 hr 11 min 21 sec) 
Heartbeat CPU  0 instructions:   99000001 cycles:  130316608 heartbeat IPC: 0.69474 cumulative IPC: 0.51920 (Simulation time: 0 hr 11 min 28 sec) 
Heartbeat CPU  0 instructions:  100000000 cycles:  131959445 heartbeat IPC: 0.60870 cumulative IPC: 0.52048 (Simulation time: 0 hr 11 min 36 sec) 
Heartbeat CPU  0 instructions:  101000000 cycles:  133751382 heartbeat IPC: 0.55806 cumulative IPC: 0.52105 (Simulation time: 0 hr 11 min 44 sec) 
Heartbeat CPU  0 instructions:  102000002 cycles:  135542787 heartbeat IPC: 0.55822 cumulative IPC: 0.52161 (Simulation time: 0 hr 11 min 51 sec) 
Heartbeat CPU  0 instructions:  103000001 cycles:  137085824 heartbeat IPC: 0.64807 cumulative IPC: 0.52323 (Simulation time: 0 hr 11 min 59 sec) 
Heartbeat CPU  0 instructions:  104000000 cycles:  138689002 heartbeat IPC: 0.62376 cumulative IPC: 0.52455 (Simulation time: 0 hr 12 min 6 sec) 
Heartbeat CPU  0 instructions:  105000003 cycles:  140380067 heartbeat IPC: 0.59135 cumulative IPC: 0.52547 (Simulation time: 0 hr 12 min 14 sec) 
Heartbeat CPU  0 instructions:  106000000 cycles:  142002720 heartbeat IPC: 0.61627 cumulative IPC: 0.52664 (Simulation time: 0 hr 12 min 21 sec) 
Heartbeat CPU  0 instructions:  107000003 cycles:  143615181 heartbeat IPC: 0.62017 cumulative IPC: 0.52783 (Simulation time: 0 hr 12 min 29 sec) 
Heartbeat CPU  0 instructions:  108000000 cycles:  145386491 heartbeat IPC: 0.56455 cumulative IPC: 0.52834 (Simulation time: 0 hr 12 min 36 sec) 
Heartbeat CPU  0 instructions:  109000000 cycles:  147143664 heartbeat IPC: 0.56910 cumulative IPC: 0.52889 (Simulation time: 0 hr 12 min 44 sec) 
Heartbeat CPU  0 instructions:  110000001 cycles:  148692445 heartbeat IPC: 0.64567 cumulative IPC: 0.53026 (Simulation time: 0 hr 12 min 51 sec) 
Heartbeat CPU  0 instructions:  111000000 cycles:  150205961 heartbeat IPC: 0.66071 cumulative IPC: 0.53173 (Simulation time: 0 hr 12 min 59 sec) 
Heartbeat CPU  0 instructions:  112000000 cycles:  151669710 heartbeat IPC: 0.68318 cumulative IPC: 0.53338 (Simulation time: 0 hr 13 min 6 sec) 
Heartbeat CPU  0 instructions:  113000001 cycles:  153262093 heartbeat IPC: 0.62799 cumulative IPC: 0.53448 (Simulation time: 0 hr 13 min 13 sec) 
Heartbeat CPU  0 instructions:  114000001 cycles:  154752724 heartbeat IPC: 0.67086 cumulative IPC: 0.53595 (Simulation time: 0 hr 13 min 20 sec) 
Heartbeat CPU  0 instructions:  115000003 cycles:  156333355 heartbeat IPC: 0.63266 cumulative IPC: 0.53705 (Simulation time: 0 hr 13 min 28 sec) 
Heartbeat CPU  0 instructions:  116000000 cycles:  158354982 heartbeat IPC: 0.49465 cumulative IPC: 0.53644 (Simulation time: 0 hr 13 min 36 sec) 
Heartbeat CPU  0 instructions:  117000003 cycles:  159844020 heartbeat IPC: 0.67158 cumulative IPC: 0.53785 (Simulation time: 0 hr 13 min 43 sec) 
Heartbeat CPU  0 instructions:  118000000 cycles:  161365172 heartbeat IPC: 0.65739 cumulative IPC: 0.53910 (Simulation time: 0 hr 13 min 50 sec) 
Heartbeat CPU  0 instructions:  119000003 cycles:  162944088 heartbeat IPC: 0.63335 cumulative IPC: 0.54012 (Simulation time: 0 hr 13 min 58 sec) 
Heartbeat CPU  0 instructions:  120000000 cycles:  164514329 heartbeat IPC: 0.63684 cumulative IPC: 0.54115 (Simulation time: 0 hr 14 min 5 sec) 
Heartbeat CPU  0 instructions:  121000003 cycles:  165889054 heartbeat IPC: 0.72742 cumulative IPC: 0.54287 (Simulation time: 0 hr 14 min 12 sec) 
Heartbeat CPU  0 instructions:  122000000 cycles:  167713810 heartbeat IPC: 0.54802 cumulative IPC: 0.54293 (Simulation time: 0 hr 14 min 20 sec) 
Heartbeat CPU  0 instructions:  123000001 cycles:  169454457 heartbeat IPC: 0.57450 cumulative IPC: 0.54329 (Simulation time: 0 hr 14 min 28 sec) 
Heartbeat CPU  0 instructions:  124000000 cycles:  170889886 heartbeat IPC: 0.69666 cumulative IPC: 0.54471 (Simulation time: 0 hr 14 min 35 sec) 
Heartbeat CPU  0 instructions:  125000000 cycles:  172349035 heartbeat IPC: 0.68533 cumulative IPC: 0.54603 (Simulation time: 0 hr 14 min 42 sec) 
Heartbeat CPU  0 instructions:  126000001 cycles:  173813231 heartbeat IPC: 0.68297 cumulative IPC: 0.54731 (Simulation time: 0 hr 14 min 49 sec) 
Heartbeat CPU  0 instructions:  127000000 cycles:  175289246 heartbeat IPC: 0.67750 cumulative IPC: 0.54852 (Simulation time: 0 hr 14 min 56 sec) 
Heartbeat CPU  0 instructions:  128000000 cycles:  176781393 heartbeat IPC: 0.67018 cumulative IPC: 0.54965 (Simulation time: 0 hr 15 min 4 sec) 
Heartbeat CPU  0 instructions:  129000000 cycles:  178236075 heartbeat IPC: 0.68744 cumulative IPC: 0.55089 (Simulation time: 0 hr 15 min 11 sec) 
Heartbeat CPU  0 instructions:  130000001 cycles:  179809399 heartbeat IPC: 0.63560 cumulative IPC: 0.55171 (Simulation time: 0 hr 15 min 18 sec) 
Heartbeat CPU  0 instructions:  131000001 cycles:  181572819 heartbeat IPC: 0.56708 cumulative IPC: 0.55188 (Simulation time: 0 hr 15 min 26 sec) 
Heartbeat CPU  0 instructions:  132000000 cycles:  182980295 heartbeat IPC: 0.71049 cumulative IPC: 0.55322 (Simulation time: 0 hr 15 min 33 sec) 
Heartbeat CPU  0 instructions:  133000001 cycles:  184355221 heartbeat IPC: 0.72731 cumulative IPC: 0.55465 (Simulation time: 0 hr 15 min 40 sec) 
Heartbeat CPU  0 instructions:  134000000 cycles:  185796695 heartbeat IPC: 0.69373 cumulative IPC: 0.55583 (Simulation time: 0 hr 15 min 47 sec) 
Heartbeat CPU  0 instructions:  135000002 cycles:  187429953 heartbeat IPC: 0.61227 cumulative IPC: 0.55637 (Simulation time: 0 hr 15 min 54 sec) 
Heartbeat CPU  0 instructions:  136000000 cycles:  188867759 heartbeat IPC: 0.69550 cumulative IPC: 0.55753 (Simulation time: 0 hr 16 min 1 sec) 
Heartbeat CPU  0 instructions:  137000000 cycles:  190326402 heartbeat IPC: 0.68557 cumulative IPC: 0.55861 (Simulation time: 0 hr 16 min 8 sec) 
Heartbeat CPU  0 instructions:  138000001 cycles:  191952974 heartbeat IPC: 0.61479 cumulative IPC: 0.55913 (Simulation time: 0 hr 16 min 16 sec) 
Heartbeat CPU  0 instructions:  139000002 cycles:  193403669 heartbeat IPC: 0.68933 cumulative IPC: 0.56020 (Simulation time: 0 hr 16 min 23 sec) 
Heartbeat CPU  0 instructions:  140000000 cycles:  194714072 heartbeat IPC: 0.76312 cumulative IPC: 0.56169 (Simulation time: 0 hr 16 min 30 sec) 
Finished CPU 0 instructions: 100000001 cycles: 178033371 cumulative IPC: 0.56169 (Simulation time: 0 hr 16 min 30 sec) 

ChampSim completed all CPUs

[ROI Statistics]
Core_0_instructions 100000001
Core_0_cycles 178033371
Core_0_IPC 0.56169

Core_0_branch_prediction_accuracy 98.50373
Core_0_branch_MPKI 0.20159
Core_0_average_ROB_occupancy_at_mispredict 240.28255

Core_0_L1D_total_access 25733129
Core_0_L1D_total_hit 20533370
Core_0_L1D_total_miss 5199759
Core_0_L1D_loads 9707626
Core_0_L1D_load_hit 8919663
Core_0_L1D_load_miss 787963
Core_0_L1D_RFOs 16025503
Core_0_L1D_RFO_hit 11613707
Core_0_L1D_RFO_miss 4411796
Core_0_L1D_prefetches 0
Core_0_L1D_prefetch_hit 0
Core_0_L1D_prefetch_miss 0
Core_0_L1D_writebacks 0
Core_0_L1D_writeback_hit 0
Core_0_L1D_writeback_miss 0
Core_0_L1D_prefetch_requested 0
Core_0_L1D_prefetch_dropped 0
Core_0_L1D_prefetch_issued 0
Core_0_L1D_prefetch_filled 0
Core_0_L1D_prefetch_useful 0
Core_0_L1D_prefetch_useless 0
Core_0_L1D_prefetch_late 0
Core_0_L1D_average_miss_latency 461.74275

Core_0_L1D_rq_access 21837365
Core_0_L1D_rq_forward 0
Core_0_L1D_rq_merged 11576165
Core_0_L1D_rq_to_cache 9854716
Core_0_L1D_rq_full 0

Core_0_L1D_wq_access 16237193
Core_0_L1D_wq_forward 406484
Core_0_L1D_wq_merged 109897
Core_0_L1D_wq_to_cache 16127296
Core_0_L1D_wq_full 238809

Core_0_L1D_pq_access 0
Core_0_L1D_pq_forward 0
Core_0_L1D_pq_merged 0
Core_0_L1D_pq_to_cache 0
Core_0_L1D_pq_full 0

Core_0_L1D_acc_epochs 185389
Core_0_L1D_acc_level_0 185389
Core_0_L1D_acc_level_1 0
Core_0_L1D_acc_level_2 0
Core_0_L1D_acc_level_3 0
Core_0_L1D_acc_level_4 0
Core_0_L1D_acc_level_5 0
Core_0_L1D_acc_level_6 0
Core_0_L1D_acc_level_7 0
Core_0_L1D_acc_level_8 0
Core_0_L1D_acc_level_9 0

Core_0_L1I_total_access 23832484
Core_0_L1I_total_hit 23832484
Core_0_L1I_total_miss 0
Core_0_L1I_loads 23832484
Core_0_L1I_load_hit 23832484
Core_0_L1I_load_miss 0
Core_0_L1I_RFOs 0
Core_0_L1I_RFO_hit 0
Core_0_L1I_RFO_miss 0
Core_0_L1I_prefetches 0
Core_0_L1I_prefetch_hit 0
Core_0_L1I_prefetch_miss 0
Core_0_L1I_writebacks 0
Core_0_L1I_writeback_hit 0
Core_0_L1I_writeback_miss 0
Core_0_L1I_prefetch_requested 0
Core_0_L1I_prefetch_dropped 0
Core_0_L1I_prefetch_issued 0
Core_0_L1I_prefetch_filled 0
Core_0_L1I_prefetch_useful 0
Core_0_L1I_prefetch_useless 0
Core_0_L1I_prefetch_late 0
Core_0_L1I_average_miss_latency -nan

Core_0_L1I_rq_access 100000003
Core_0_L1I_rq_forward 0
Core_0_L1I_rq_merged 76167519
Core_0_L1I_rq_to_cache 23832484
Core_0_L1I_rq_full 0

Core_0_L1I_wq_access 0
Core_0_L1I_wq_forward 0
Core_0_L1I_wq_merged 0
Core_0_L1I_wq_to_cache 0
Core_0_L1I_wq_full 0

Core_0_L1I_pq_access 0
Core_0_L1I_pq_forward 0
Core_0_L1I_pq_merged 0
Core_0_L1I_pq_to_cache 0
Core_0_L1I_pq_full 0

Core_0_L1I_acc_epochs 185389
Core_0_L1I_acc_level_0 185389
Core_0_L1I_acc_level_1 0
Core_0_L1I_acc_level_2 0
Core_0_L1I_acc_level_3 0
Core_0_L1I_acc_level_4 0
Core_0_L1I_acc_level_5 0
Core_0_L1I_acc_level_6 0
Core_0_L1I_acc_level_7 0
Core_0_L1I_acc_level_8 0
Core_0_L1I_acc_level_9 0

Core_0_L2C_total_access 9828129
Core_0_L2C_total_hit 5755270
Core_0_L2C_total_miss 4072859
Core_0_L2C_loads 787963
Core_0_L2C_load_hit 201491
Core_0_L2C_load_miss 586472
Core_0_L2C_RFOs 4411796
Core_0_L2C_RFO_hit 1127064
Core_0_L2C_RFO_miss 3284732
Core_0_L2C_prefetches 216567
Core_0_L2C_prefetch_hit 15137
Core_0_L2C_prefetch_miss 201430
Core_0_L2C_writebacks 4411803
Core_0_L2C_writeback_hit 4411578
Core_0_L2C_writeback_miss 225
Core_0_L2C_prefetch_requested 7905809
Core_0_L2C_prefetch_dropped 0
Core_0_L2C_prefetch_issued 7905809
Core_0_L2C_prefetch_filled 383744
Core_0_L2C_prefetch_useful 383738
Core_0_L2C_prefetch_useless 6
Core_0_L2C_prefetch_late 152700
Core_0_L2C_average_miss_latency 574.19357

Core_0_L2C_rq_access 5199767
Core_0_L2C_rq_forward 0
Core_0_L2C_rq_merged 0
Core_0_L2C_rq_to_cache 5199767
Core_0_L2C_rq_full 0

Core_0_L2C_wq_access 4411803
Core_0_L2C_wq_forward 0
Core_0_L2C_wq_merged 0
Core_0_L2C_wq_to_cache 4411803
Core_0_L2C_wq_full 0

Core_0_L2C_pq_access 7905809
Core_0_L2C_pq_forward 0
Core_0_L2C_pq_merged 2935238
Core_0_L2C_pq_to_cache 4970571
Core_0_L2C_pq_full 0

Core_0_L2C_acc_epochs 185389
Core_0_L2C_acc_level_0 6696
Core_0_L2C_acc_level_1 9374
Core_0_L2C_acc_level_2 11107
Core_0_L2C_acc_level_3 12740
Core_0_L2C_acc_level_4 13769
Core_0_L2C_acc_level_5 14856
Core_0_L2C_acc_level_6 15582
Core_0_L2C_acc_level_7 16898
Core_0_L2C_acc_level_8 17874
Core_0_L2C_acc_level_9 66493

Core_0_LLC_total_access 8909864
Core_0_LLC_total_hit 4510484
Core_0_LLC_total_miss 4399380
Core_0_LLC_loads 437187
Core_0_LLC_load_hit 349575
Core_0_LLC_load_miss 87612
Core_0_LLC_RFOs 3284402
Core_0_LLC_RFO_hit 918241
Core_0_LLC_RFO_miss 2366161
Core_0_LLC_prefetches 1903892
Core_0_LLC_prefetch_hit 1203672
Core_0_LLC_prefetch_miss 700220
Core_0_LLC_writebacks 3284383
Core_0_LLC_writeback_hit 2038996
Core_0_LLC_writeback_miss 1245387
Core_0_LLC_prefetch_requested 0
Core_0_LLC_prefetch_dropped 0
Core_0_LLC_prefetch_issued 0
Core_0_LLC_prefetch_filled 1117031
Core_0_LLC_prefetch_useful 580568
Core_0_LLC_prefetch_useless 532123
Core_0_LLC_prefetch_late 61725
Core_0_LLC_average_miss_latency 616.28166

Core_0_LLC_rq_access 3721927
Core_0_LLC_rq_forward 0
Core_0_LLC_rq_merged 0
Core_0_LLC_rq_to_cache 3721597
Core_0_LLC_rq_full 0

Core_0_LLC_wq_access 3284383
Core_0_LLC_wq_forward 330
Core_0_LLC_wq_merged 0
Core_0_LLC_wq_to_cache 3284383
Core_0_LLC_wq_full 0

Core_0_LLC_pq_access 4605732
Core_0_LLC_pq_forward 0
Core_0_LLC_pq_merged 349957
Core_0_LLC_pq_to_cache 4255775
Core_0_LLC_pq_full 0

Core_0_LLC_acc_epochs 190151
Core_0_LLC_acc_level_0 2779
Core_0_LLC_acc_level_1 9440
Core_0_LLC_acc_level_2 15981
Core_0_LLC_acc_level_3 23567
Core_0_LLC_acc_level_4 29458
Core_0_LLC_acc_level_5 30430
Core_0_LLC_acc_level_6 22815
Core_0_LLC_acc_level_7 15539
Core_0_LLC_acc_level_8 10979
Core_0_LLC_acc_level_9 29163

Core_0_major_page_fault 0
Core_0_minor_page_fault 41216

spp.pref.total 7905809
spp.pref.at_L2 768042
spp.pref.at_LLC 7137767

spp.depth.max 11
spp.depth.min 0
spp.depth.avg 7

spp.breadth.max 2
spp.breadth.min 0
spp.breadth.avg 0

delta_1 1640752
delta_-1 1639972
delta_-2 1603206
delta_3 1596723
delta_4 1506349
delta_-63 14683
delta_2 11041

depth_1_delta_1 240073
depth_1_delta_-2 236163
depth_1_delta_-1 236044
depth_1_delta_4 232302
depth_1_delta_3 232210
depth_1_delta_-63 7343
depth_1_delta_2 33
depth_2_delta_1 240075
depth_2_delta_-1 236108
depth_2_delta_-2 236088
depth_2_delta_3 231944
depth_2_delta_4 228375
depth_2_delta_-63 7340
depth_2_delta_2 3672
depth_3_delta_-2 239729
depth_3_delta_3 235978
depth_3_delta_-1 235738
depth_3_delta_1 232334
depth_3_delta_4 220870
depth_3_delta_2 7336
depth_4_delta_-1 247103
depth_4_delta_1 232295
depth_4_delta_-2 228511
depth_4_delta_3 224403
depth_4_delta_4 216833
depth_5_delta_4 224393
depth_5_delta_1 224386
depth_5_delta_-2 224184
depth_5_delta_-1 224116
depth_5_delta_3 220407
depth_6_delta_-2 213448
depth_6_delta_1 212184
depth_6_delta_-1 212141
depth_6_delta_3 199697
depth_6_delta_4 175729
depth_7_delta_1 172587
depth_7_delta_3 158266
depth_7_delta_-1 155555
depth_7_delta_-2 141481
depth_7_delta_4 133947
depth_8_delta_3 81539
depth_8_delta_-1 77691
depth_8_delta_1 73550
depth_8_delta_-2 72106
depth_8_delta_4 63433
depth_9_delta_-1 15369
depth_9_delta_1 13180
depth_9_delta_3 12129
depth_9_delta_-2 11366
depth_9_delta_4 10127
depth_10_delta_4 340
depth_10_delta_3 150
depth_10_delta_-2 127
depth_10_delta_-1 107
depth_10_delta_1 88
depth_11_delta_-2 3

Channel_0_RQ_row_buffer_hit 257910
Channel_0_RQ_row_buffer_miss 2895766
Channel_0_WQ_row_buffer_hit 271551
Channel_0_WQ_row_buffer_miss 2093079
Channel_0_WQ_full 113
Channel_0_dbus_congested 3718062

avg_congested_cycle 11

DRAM_bw_pochs 760602
DRAM_bw_level_0 170829
DRAM_bw_level_1 315218
DRAM_bw_level_2 223709
DRAM_bw_level_3 50846
