*************************************************
   ChampSim Multicore Out-of-Order Simulator
   Last compiled: Feb  6 2025 20:33:19
*************************************************
parsing config file: /home/wzz/Pythia/config/pythia.ini

trace_0 /home/wzz/Pythia/traces/620.omnetpp_s-141B.champsimtrace.xz
adding L2C_PREFETCHER: Scooby
Initialize SHIP state
warmup_instructions 40000000
simulation_instructions 100000000
champsim_seed 216
measure_ipc 0
measure_ipc_epoch 1000
measure_dram_bw 1
measure_dram_bw_epoch 256
measure_cache_acc 1
measure_cache_acc_epoch 1024
l1d_perfect 0
l2c_perfect 0
llc_perfect 0
l1d_semi_perfect 0
l2c_semi_perfect 0
llc_semi_perfect 0
semi_perfect_cache_page_buffer_size 64

num_cpus 1
cpu_freq 4000
dram_io_freq 2400
page_size 4096
block_size 64
max_read_per_cycle 8
max_fill_per_cycle 1
dram_channels 1
log2_dram_channels 0
dram_ranks 1
dram_banks 8
dram_rows 65536
dram_columns 128
dram_row_size 8
dram_size 4096
dram_pages 1048576

fetch_width 6
decode_width 6
exec_width 4
lq_width 2
sq_width 2
retire_width 4
scheduler_size 128
branch_mispredict_penalty 20
rob_size 256
lq_size 72
sq_size 56
num_instr_destinations_sparc 4
num_instr_destinations 2
num_instr_sources 4

itlb_set 16
itlb_way 8
itlb_rq_size 16
itlb_wq_size 16
itlb_pq_size 0
itlb_mshr_size 8
itlb_latency 1

dtlb_set 16
dtlb_way 4
dtlb_rq_size 16
dtlb_wq_size 16
dtlb_pq_size 0
dtlb_mshr_size 8
dtlb_latency 1

stlb_set 128
stlb_way 12
stlb_rq_size 32
stlb_wq_size 32
stlb_pq_size 0
stlb_mshr_size 16
stlb_latency 8

l1i_size 32
l1i_set 64
l1i_way 8
l1i_rq_size 64
l1i_wq_size 64
l1i_pq_size 8
l1i_mshr_size 8
l1i_latency 1

l1d_size 32
l1d_set 64
l1d_way 8
l1d_rq_size 64
l1d_wq_size 64
l1d_pq_size 8
l1d_mshr_size 16
l1d_latency 4

l2c_size 256
l2c_set 512
l2c_way 8
l2c_rq_size 32
l2c_wq_size 32
l2c_pq_size 32
l2c_mshr_size 32
l2c_latency 10

llc_size 2048
llc_set 2048
llc_way 16
llc_rq_size 32
llc_wq_size 32
llc_pq_size 32
llc_mshr_size 64
llc_latency 20

dram_channel_width 8
dram_wq_size 64
dram_rq_size 64
tRP 15
tRCD 15
tCAS 12.5
dram_dbus_turn_around_time 30
dram_write_high_wm 56
dram_write_low_wm 48
min_dram_writes_per_switch 16
dram_mtps 2400
dram_dbus_return_time 13

scooby_alpha 0.0065088
scooby_gamma 0.556301
scooby_epsilon 0.00182284
scooby_state_num_bits 10
scooby_max_states 1024
scooby_seed 200
scooby_policy EGreedy
scooby_learning_type SARSA
scooby_actions 1,3,4,5,10,11,12,22,23,30,32,-1,-3,-6,0,
scooby_max_actions 15
scooby_pt_size 256
scooby_st_size 64
scooby_max_pcs 5
scooby_max_offsets 5
scooby_max_deltas 5
scooby_reward_none -4
scooby_reward_incorrect -8
scooby_reward_correct_untimely 12
scooby_reward_correct_timely 20
scooby_brain_zero_init 0
scooby_enable_reward_all 0
scooby_enable_track_multiple 0
scooby_enable_reward_out_of_bounds 1
scooby_reward_out_of_bounds -12
scooby_state_type 1
scooby_state_hash_type 11
scooby_access_debug 0
scooby_print_access_debug 0
scooby_print_access_debug_pc deadbeef
scooby_print_access_debug_pc_count 0
scooby_print_trace 0
scooby_enable_state_action_stats 1
scooby_enable_reward_tracker_hit 0
scooby_reward_tracker_hit -2
scooby_enable_featurewise_engine 1
scooby_pref_degree 1
scooby_enable_dyn_degree 1
scooby_max_to_avg_q_thresholds 0.5,1,2,
scooby_dyn_degrees 1,2,4,4,
scooby_multi_deg_select_type 2
scooby_last_pref_offset_conf_thresholds 1,3,8,
scooby_dyn_degrees_type2 1,2,4,6,
scooby_action_tracker_size 2
scooby_high_bw_thresh 4
scooby_enable_hbw_reward 1
scooby_reward_hbw_correct_timely 20
scooby_reward_hbw_correct_untimely 12
scooby_reward_hbw_incorrect -14
scooby_reward_hbw_none -2
scooby_reward_hbw_out_of_bounds -12
scooby_reward_hbw_tracker_hit -2
scooby_last_pref_offset_conf_thresholds_hbw 1,3,8,
scooby_dyn_degrees_type2_hbw 1,2,4,6,

le_enable_trace 0
le_trace_interval 0
le_trace_file_name 
le_trace_state 0
le_enable_score_plot 0
le_plot_file_name 
le_plot_actions 
le_enable_action_trace 0
le_action_trace_interval 0
le_action_trace_name 
le_enable_action_plot 0

le_featurewise_active_features PC, PC_Delta
le_featurewise_num_tilings 3,3,
le_featurewise_num_tiles 128,128,
le_featurewise_hash_types 2,2,
le_featurewise_enable_tiling_offset 1,1,
le_featurewise_max_q_thresh 0.5
le_featurewise_enable_action_fallback 1
le_featurewise_feature_weights 1,1,
le_featurewise_enable_dynamic_weight 0
le_featurewise_weight_gradient 0.001
le_featurewise_disable_adjust_weight_all_features_align 1
le_featurewise_selective_update 0
le_featurewise_pooling_type 2
le_featurewise_enable_dyn_action_fallback 1
le_featurewise_bw_acc_check_level 1
le_featurewise_acc_thresh 2
le_featurewise_enable_trace 0
le_featurewise_trace_feature_type 0
le_featurewise_trace_feature 
le_featurewise_trace_interval 0
le_featurewise_trace_record_count 0
le_featurewise_trace_file_name 
le_featurewise_enable_score_plot 0
le_featurewise_plot_actions 
le_featurewise_plot_file_name 


Heartbeat CPU  0 instructions:    1000000 cycles:     860697 heartbeat IPC: 1.16185 cumulative IPC: 1.16185 (Simulation time: 0 hr 0 min 5 sec) 
Heartbeat CPU  0 instructions:    2000003 cycles:    1677443 heartbeat IPC: 1.22437 cumulative IPC: 1.19229 (Simulation time: 0 hr 0 min 11 sec) 
Heartbeat CPU  0 instructions:    3000001 cycles:    2495350 heartbeat IPC: 1.22263 cumulative IPC: 1.20224 (Simulation time: 0 hr 0 min 16 sec) 
Heartbeat CPU  0 instructions:    4000000 cycles:    3338908 heartbeat IPC: 1.18545 cumulative IPC: 1.19800 (Simulation time: 0 hr 0 min 22 sec) 
Heartbeat CPU  0 instructions:    5000001 cycles:    4120896 heartbeat IPC: 1.27879 cumulative IPC: 1.21333 (Simulation time: 0 hr 0 min 28 sec) 
Heartbeat CPU  0 instructions:    6000000 cycles:    4940832 heartbeat IPC: 1.21961 cumulative IPC: 1.21437 (Simulation time: 0 hr 0 min 33 sec) 
Heartbeat CPU  0 instructions:    7000003 cycles:    5771889 heartbeat IPC: 1.20329 cumulative IPC: 1.21278 (Simulation time: 0 hr 0 min 39 sec) 
Heartbeat CPU  0 instructions:    8000000 cycles:    6573564 heartbeat IPC: 1.24738 cumulative IPC: 1.21700 (Simulation time: 0 hr 0 min 45 sec) 
Heartbeat CPU  0 instructions:    9000000 cycles:    7389924 heartbeat IPC: 1.22495 cumulative IPC: 1.21787 (Simulation time: 0 hr 0 min 50 sec) 
Heartbeat CPU  0 instructions:   10000000 cycles:    8210657 heartbeat IPC: 1.21842 cumulative IPC: 1.21793 (Simulation time: 0 hr 0 min 56 sec) 
Heartbeat CPU  0 instructions:   11000000 cycles:    9039308 heartbeat IPC: 1.20678 cumulative IPC: 1.21691 (Simulation time: 0 hr 1 min 2 sec) 
Heartbeat CPU  0 instructions:   12000000 cycles:    9874962 heartbeat IPC: 1.19667 cumulative IPC: 1.21519 (Simulation time: 0 hr 1 min 8 sec) 
Heartbeat CPU  0 instructions:   13000000 cycles:   10694920 heartbeat IPC: 1.21957 cumulative IPC: 1.21553 (Simulation time: 0 hr 1 min 13 sec) 
Heartbeat CPU  0 instructions:   14000000 cycles:   11503326 heartbeat IPC: 1.23700 cumulative IPC: 1.21704 (Simulation time: 0 hr 1 min 19 sec) 
Heartbeat CPU  0 instructions:   15000000 cycles:   12330370 heartbeat IPC: 1.20913 cumulative IPC: 1.21651 (Simulation time: 0 hr 1 min 25 sec) 
Heartbeat CPU  0 instructions:   16000000 cycles:   13175719 heartbeat IPC: 1.18294 cumulative IPC: 1.21435 (Simulation time: 0 hr 1 min 30 sec) 
Heartbeat CPU  0 instructions:   17000003 cycles:   13987316 heartbeat IPC: 1.23214 cumulative IPC: 1.21539 (Simulation time: 0 hr 1 min 36 sec) 
Heartbeat CPU  0 instructions:   18000000 cycles:   14803646 heartbeat IPC: 1.22499 cumulative IPC: 1.21592 (Simulation time: 0 hr 1 min 42 sec) 
Heartbeat CPU  0 instructions:   19000000 cycles:   15611455 heartbeat IPC: 1.23792 cumulative IPC: 1.21706 (Simulation time: 0 hr 1 min 48 sec) 
Heartbeat CPU  0 instructions:   20000000 cycles:   16445435 heartbeat IPC: 1.19907 cumulative IPC: 1.21614 (Simulation time: 0 hr 1 min 54 sec) 
Heartbeat CPU  0 instructions:   21000001 cycles:   17280986 heartbeat IPC: 1.19682 cumulative IPC: 1.21521 (Simulation time: 0 hr 1 min 59 sec) 
Heartbeat CPU  0 instructions:   22000003 cycles:   18117007 heartbeat IPC: 1.19614 cumulative IPC: 1.21433 (Simulation time: 0 hr 2 min 5 sec) 
Heartbeat CPU  0 instructions:   23000000 cycles:   18961291 heartbeat IPC: 1.18443 cumulative IPC: 1.21300 (Simulation time: 0 hr 2 min 11 sec) 
Heartbeat CPU  0 instructions:   24000000 cycles:   19790264 heartbeat IPC: 1.20631 cumulative IPC: 1.21272 (Simulation time: 0 hr 2 min 16 sec) 
Heartbeat CPU  0 instructions:   25000002 cycles:   20625696 heartbeat IPC: 1.19699 cumulative IPC: 1.21208 (Simulation time: 0 hr 2 min 22 sec) 
Heartbeat CPU  0 instructions:   26000001 cycles:   21451637 heartbeat IPC: 1.21074 cumulative IPC: 1.21203 (Simulation time: 0 hr 2 min 28 sec) 
Heartbeat CPU  0 instructions:   27000002 cycles:   22278771 heartbeat IPC: 1.20900 cumulative IPC: 1.21192 (Simulation time: 0 hr 2 min 34 sec) 
Heartbeat CPU  0 instructions:   28000000 cycles:   23091289 heartbeat IPC: 1.23074 cumulative IPC: 1.21258 (Simulation time: 0 hr 2 min 39 sec) 
Heartbeat CPU  0 instructions:   29000000 cycles:   23918048 heartbeat IPC: 1.20954 cumulative IPC: 1.21247 (Simulation time: 0 hr 2 min 45 sec) 
Heartbeat CPU  0 instructions:   30000003 cycles:   24740611 heartbeat IPC: 1.21572 cumulative IPC: 1.21258 (Simulation time: 0 hr 2 min 51 sec) 
Heartbeat CPU  0 instructions:   31000003 cycles:   25550789 heartbeat IPC: 1.23430 cumulative IPC: 1.21327 (Simulation time: 0 hr 2 min 57 sec) 
Heartbeat CPU  0 instructions:   32000000 cycles:   26348090 heartbeat IPC: 1.25423 cumulative IPC: 1.21451 (Simulation time: 0 hr 3 min 2 sec) 
Heartbeat CPU  0 instructions:   33000001 cycles:   27161111 heartbeat IPC: 1.22998 cumulative IPC: 1.21497 (Simulation time: 0 hr 3 min 8 sec) 
Heartbeat CPU  0 instructions:   34000003 cycles:   28010459 heartbeat IPC: 1.17738 cumulative IPC: 1.21383 (Simulation time: 0 hr 3 min 14 sec) 
Heartbeat CPU  0 instructions:   35000002 cycles:   28831180 heartbeat IPC: 1.21844 cumulative IPC: 1.21396 (Simulation time: 0 hr 3 min 20 sec) 
Heartbeat CPU  0 instructions:   36000000 cycles:   29646924 heartbeat IPC: 1.22587 cumulative IPC: 1.21429 (Simulation time: 0 hr 3 min 25 sec) 
Heartbeat CPU  0 instructions:   37000000 cycles:   30478624 heartbeat IPC: 1.20236 cumulative IPC: 1.21397 (Simulation time: 0 hr 3 min 31 sec) 
Heartbeat CPU  0 instructions:   38000000 cycles:   31316757 heartbeat IPC: 1.19313 cumulative IPC: 1.21341 (Simulation time: 0 hr 3 min 37 sec) 
Heartbeat CPU  0 instructions:   39000003 cycles:   32149739 heartbeat IPC: 1.20051 cumulative IPC: 1.21307 (Simulation time: 0 hr 3 min 42 sec) 
Heartbeat CPU  0 instructions:   40000000 cycles:   32954960 heartbeat IPC: 1.24189 cumulative IPC: 1.21378 (Simulation time: 0 hr 3 min 48 sec) 

Warmup complete CPU  0 instructions:   40000001 cycles:   32954961 (Simulation time: 0 hr 3 min 48 sec) 

Heartbeat CPU  0 instructions:   41000002 cycles:   37128393 heartbeat IPC: 0.23961 cumulative IPC: 0.23961 (Simulation time: 0 hr 3 min 56 sec) 
Heartbeat CPU  0 instructions:   42000000 cycles:   41614351 heartbeat IPC: 0.22292 cumulative IPC: 0.23096 (Simulation time: 0 hr 4 min 5 sec) 
Heartbeat CPU  0 instructions:   43000003 cycles:   45828317 heartbeat IPC: 0.23731 cumulative IPC: 0.23304 (Simulation time: 0 hr 4 min 14 sec) 
Heartbeat CPU  0 instructions:   44000000 cycles:   50087326 heartbeat IPC: 0.23480 cumulative IPC: 0.23348 (Simulation time: 0 hr 4 min 23 sec) 
Heartbeat CPU  0 instructions:   45000000 cycles:   54461211 heartbeat IPC: 0.22863 cumulative IPC: 0.23249 (Simulation time: 0 hr 4 min 32 sec) 
Heartbeat CPU  0 instructions:   46000001 cycles:   58734063 heartbeat IPC: 0.23404 cumulative IPC: 0.23275 (Simulation time: 0 hr 4 min 40 sec) 
Heartbeat CPU  0 instructions:   47000000 cycles:   62897972 heartbeat IPC: 0.24016 cumulative IPC: 0.23378 (Simulation time: 0 hr 4 min 49 sec) 
Heartbeat CPU  0 instructions:   48000000 cycles:   67053254 heartbeat IPC: 0.24066 cumulative IPC: 0.23462 (Simulation time: 0 hr 4 min 58 sec) 
Heartbeat CPU  0 instructions:   49000000 cycles:   71428987 heartbeat IPC: 0.22853 cumulative IPC: 0.23392 (Simulation time: 0 hr 5 min 7 sec) 
Heartbeat CPU  0 instructions:   50000001 cycles:   76139669 heartbeat IPC: 0.21228 cumulative IPC: 0.23156 (Simulation time: 0 hr 5 min 15 sec) 
Heartbeat CPU  0 instructions:   51000000 cycles:   80256626 heartbeat IPC: 0.24290 cumulative IPC: 0.23255 (Simulation time: 0 hr 5 min 24 sec) 
Heartbeat CPU  0 instructions:   52000000 cycles:   84496493 heartbeat IPC: 0.23586 cumulative IPC: 0.23282 (Simulation time: 0 hr 5 min 33 sec) 
Heartbeat CPU  0 instructions:   53000000 cycles:   88849282 heartbeat IPC: 0.22974 cumulative IPC: 0.23258 (Simulation time: 0 hr 5 min 41 sec) 
Heartbeat CPU  0 instructions:   54000001 cycles:   92677849 heartbeat IPC: 0.26119 cumulative IPC: 0.23442 (Simulation time: 0 hr 5 min 50 sec) 
Heartbeat CPU  0 instructions:   55000000 cycles:   96925852 heartbeat IPC: 0.23540 cumulative IPC: 0.23448 (Simulation time: 0 hr 5 min 59 sec) 
Heartbeat CPU  0 instructions:   56000000 cycles:  101337947 heartbeat IPC: 0.22665 cumulative IPC: 0.23398 (Simulation time: 0 hr 6 min 8 sec) 
Heartbeat CPU  0 instructions:   57000002 cycles:  105617465 heartbeat IPC: 0.23367 cumulative IPC: 0.23396 (Simulation time: 0 hr 6 min 17 sec) 
Heartbeat CPU  0 instructions:   58000002 cycles:  109860526 heartbeat IPC: 0.23568 cumulative IPC: 0.23405 (Simulation time: 0 hr 6 min 26 sec) 
Heartbeat CPU  0 instructions:   59000001 cycles:  114144661 heartbeat IPC: 0.23342 cumulative IPC: 0.23402 (Simulation time: 0 hr 6 min 35 sec) 
Heartbeat CPU  0 instructions:   60000000 cycles:  118420485 heartbeat IPC: 0.23387 cumulative IPC: 0.23401 (Simulation time: 0 hr 6 min 43 sec) 
Heartbeat CPU  0 instructions:   61000002 cycles:  122831907 heartbeat IPC: 0.22668 cumulative IPC: 0.23365 (Simulation time: 0 hr 6 min 52 sec) 
Heartbeat CPU  0 instructions:   62000000 cycles:  127115207 heartbeat IPC: 0.23346 cumulative IPC: 0.23364 (Simulation time: 0 hr 7 min 1 sec) 
Heartbeat CPU  0 instructions:   63000002 cycles:  131364729 heartbeat IPC: 0.23532 cumulative IPC: 0.23372 (Simulation time: 0 hr 7 min 10 sec) 
Heartbeat CPU  0 instructions:   64000000 cycles:  135558672 heartbeat IPC: 0.23844 cumulative IPC: 0.23391 (Simulation time: 0 hr 7 min 18 sec) 
Heartbeat CPU  0 instructions:   65000001 cycles:  139848471 heartbeat IPC: 0.23311 cumulative IPC: 0.23388 (Simulation time: 0 hr 7 min 27 sec) 
Heartbeat CPU  0 instructions:   66000001 cycles:  144032913 heartbeat IPC: 0.23898 cumulative IPC: 0.23407 (Simulation time: 0 hr 7 min 36 sec) 
Heartbeat CPU  0 instructions:   67000000 cycles:  148318741 heartbeat IPC: 0.23333 cumulative IPC: 0.23404 (Simulation time: 0 hr 7 min 45 sec) 
Heartbeat CPU  0 instructions:   68000000 cycles:  152703903 heartbeat IPC: 0.22804 cumulative IPC: 0.23382 (Simulation time: 0 hr 7 min 54 sec) 
Heartbeat CPU  0 instructions:   69000001 cycles:  156973540 heartbeat IPC: 0.23421 cumulative IPC: 0.23384 (Simulation time: 0 hr 8 min 2 sec) 
Heartbeat CPU  0 instructions:   70000000 cycles:  161165038 heartbeat IPC: 0.23858 cumulative IPC: 0.23399 (Simulation time: 0 hr 8 min 11 sec) 
Heartbeat CPU  0 instructions:   71000001 cycles:  165410197 heartbeat IPC: 0.23556 cumulative IPC: 0.23404 (Simulation time: 0 hr 8 min 20 sec) 
Heartbeat CPU  0 instructions:   72000000 cycles:  169636839 heartbeat IPC: 0.23659 cumulative IPC: 0.23412 (Simulation time: 0 hr 8 min 28 sec) 
Heartbeat CPU  0 instructions:   73000002 cycles:  173809388 heartbeat IPC: 0.23966 cumulative IPC: 0.23428 (Simulation time: 0 hr 8 min 37 sec) 
Heartbeat CPU  0 instructions:   74000000 cycles:  178087246 heartbeat IPC: 0.23376 cumulative IPC: 0.23427 (Simulation time: 0 hr 8 min 46 sec) 
Heartbeat CPU  0 instructions:   75000002 cycles:  182351314 heartbeat IPC: 0.23452 cumulative IPC: 0.23428 (Simulation time: 0 hr 8 min 54 sec) 
Heartbeat CPU  0 instructions:   76000000 cycles:  186853976 heartbeat IPC: 0.22209 cumulative IPC: 0.23392 (Simulation time: 0 hr 9 min 3 sec) 
Heartbeat CPU  0 instructions:   77000003 cycles:  191034410 heartbeat IPC: 0.23921 cumulative IPC: 0.23406 (Simulation time: 0 hr 9 min 12 sec) 
Heartbeat CPU  0 instructions:   78000000 cycles:  195321277 heartbeat IPC: 0.23327 cumulative IPC: 0.23404 (Simulation time: 0 hr 9 min 21 sec) 
Heartbeat CPU  0 instructions:   79000003 cycles:  199724725 heartbeat IPC: 0.22710 cumulative IPC: 0.23386 (Simulation time: 0 hr 9 min 30 sec) 
Heartbeat CPU  0 instructions:   80000000 cycles:  203873240 heartbeat IPC: 0.24105 cumulative IPC: 0.23403 (Simulation time: 0 hr 9 min 38 sec) 
Heartbeat CPU  0 instructions:   81000003 cycles:  208187746 heartbeat IPC: 0.23178 cumulative IPC: 0.23397 (Simulation time: 0 hr 9 min 47 sec) 
Heartbeat CPU  0 instructions:   82000002 cycles:  212369404 heartbeat IPC: 0.23914 cumulative IPC: 0.23409 (Simulation time: 0 hr 9 min 56 sec) 
Heartbeat CPU  0 instructions:   83000001 cycles:  216680444 heartbeat IPC: 0.23196 cumulative IPC: 0.23404 (Simulation time: 0 hr 10 min 5 sec) 
Heartbeat CPU  0 instructions:   84000000 cycles:  220836227 heartbeat IPC: 0.24063 cumulative IPC: 0.23419 (Simulation time: 0 hr 10 min 14 sec) 
Heartbeat CPU  0 instructions:   85000002 cycles:  225188604 heartbeat IPC: 0.22976 cumulative IPC: 0.23409 (Simulation time: 0 hr 10 min 23 sec) 
Heartbeat CPU  0 instructions:   86000001 cycles:  229292662 heartbeat IPC: 0.24366 cumulative IPC: 0.23429 (Simulation time: 0 hr 10 min 31 sec) 
Heartbeat CPU  0 instructions:   87000001 cycles:  233639656 heartbeat IPC: 0.23004 cumulative IPC: 0.23420 (Simulation time: 0 hr 10 min 40 sec) 
Heartbeat CPU  0 instructions:   88000000 cycles:  237961319 heartbeat IPC: 0.23139 cumulative IPC: 0.23414 (Simulation time: 0 hr 10 min 49 sec) 
Heartbeat CPU  0 instructions:   89000003 cycles:  242119692 heartbeat IPC: 0.24048 cumulative IPC: 0.23427 (Simulation time: 0 hr 10 min 58 sec) 
Heartbeat CPU  0 instructions:   90000002 cycles:  246433343 heartbeat IPC: 0.23182 cumulative IPC: 0.23422 (Simulation time: 0 hr 11 min 6 sec) 
Heartbeat CPU  0 instructions:   91000000 cycles:  250581426 heartbeat IPC: 0.24107 cumulative IPC: 0.23435 (Simulation time: 0 hr 11 min 15 sec) 
Heartbeat CPU  0 instructions:   92000000 cycles:  254864743 heartbeat IPC: 0.23346 cumulative IPC: 0.23433 (Simulation time: 0 hr 11 min 24 sec) 
Heartbeat CPU  0 instructions:   93000001 cycles:  259155475 heartbeat IPC: 0.23306 cumulative IPC: 0.23431 (Simulation time: 0 hr 11 min 33 sec) 
Heartbeat CPU  0 instructions:   94000000 cycles:  263370932 heartbeat IPC: 0.23722 cumulative IPC: 0.23436 (Simulation time: 0 hr 11 min 42 sec) 
Heartbeat CPU  0 instructions:   95000001 cycles:  267645525 heartbeat IPC: 0.23394 cumulative IPC: 0.23435 (Simulation time: 0 hr 11 min 50 sec) 
Heartbeat CPU  0 instructions:   96000000 cycles:  271786385 heartbeat IPC: 0.24150 cumulative IPC: 0.23448 (Simulation time: 0 hr 11 min 59 sec) 
Heartbeat CPU  0 instructions:   97000002 cycles:  276107924 heartbeat IPC: 0.23140 cumulative IPC: 0.23442 (Simulation time: 0 hr 12 min 8 sec) 
Heartbeat CPU  0 instructions:   98000002 cycles:  280350102 heartbeat IPC: 0.23573 cumulative IPC: 0.23444 (Simulation time: 0 hr 12 min 16 sec) 
Heartbeat CPU  0 instructions:   99000001 cycles:  284615556 heartbeat IPC: 0.23444 cumulative IPC: 0.23444 (Simulation time: 0 hr 12 min 24 sec) 
Heartbeat CPU  0 instructions:  100000000 cycles:  288883159 heartbeat IPC: 0.23432 cumulative IPC: 0.23444 (Simulation time: 0 hr 12 min 32 sec) 
Heartbeat CPU  0 instructions:  101000000 cycles:  293156537 heartbeat IPC: 0.23401 cumulative IPC: 0.23443 (Simulation time: 0 hr 12 min 39 sec) 
Heartbeat CPU  0 instructions:  102000001 cycles:  297254299 heartbeat IPC: 0.24404 cumulative IPC: 0.23458 (Simulation time: 0 hr 12 min 47 sec) 
Heartbeat CPU  0 instructions:  103000000 cycles:  301463513 heartbeat IPC: 0.23757 cumulative IPC: 0.23463 (Simulation time: 0 hr 12 min 54 sec) 
Heartbeat CPU  0 instructions:  104000000 cycles:  305752130 heartbeat IPC: 0.23318 cumulative IPC: 0.23461 (Simulation time: 0 hr 13 min 2 sec) 
Heartbeat CPU  0 instructions:  105000000 cycles:  310015078 heartbeat IPC: 0.23458 cumulative IPC: 0.23461 (Simulation time: 0 hr 13 min 9 sec) 
Heartbeat CPU  0 instructions:  106000003 cycles:  314293111 heartbeat IPC: 0.23375 cumulative IPC: 0.23459 (Simulation time: 0 hr 13 min 17 sec) 
Heartbeat CPU  0 instructions:  107000001 cycles:  318419686 heartbeat IPC: 0.24233 cumulative IPC: 0.23471 (Simulation time: 0 hr 13 min 24 sec) 
Heartbeat CPU  0 instructions:  108000000 cycles:  322642242 heartbeat IPC: 0.23682 cumulative IPC: 0.23474 (Simulation time: 0 hr 13 min 32 sec) 
Heartbeat CPU  0 instructions:  109000000 cycles:  327062123 heartbeat IPC: 0.22625 cumulative IPC: 0.23461 (Simulation time: 0 hr 13 min 39 sec) 
Heartbeat CPU  0 instructions:  110000002 cycles:  331373868 heartbeat IPC: 0.23193 cumulative IPC: 0.23457 (Simulation time: 0 hr 13 min 47 sec) 
Heartbeat CPU  0 instructions:  111000003 cycles:  335561246 heartbeat IPC: 0.23881 cumulative IPC: 0.23463 (Simulation time: 0 hr 13 min 54 sec) 
Heartbeat CPU  0 instructions:  112000000 cycles:  339704511 heartbeat IPC: 0.24135 cumulative IPC: 0.23472 (Simulation time: 0 hr 14 min 2 sec) 
Heartbeat CPU  0 instructions:  113000001 cycles:  343929132 heartbeat IPC: 0.23671 cumulative IPC: 0.23475 (Simulation time: 0 hr 14 min 9 sec) 
Heartbeat CPU  0 instructions:  114000000 cycles:  348132832 heartbeat IPC: 0.23789 cumulative IPC: 0.23479 (Simulation time: 0 hr 14 min 17 sec) 
Heartbeat CPU  0 instructions:  115000000 cycles:  352554973 heartbeat IPC: 0.22613 cumulative IPC: 0.23467 (Simulation time: 0 hr 14 min 24 sec) 
Heartbeat CPU  0 instructions:  116000000 cycles:  356610279 heartbeat IPC: 0.24659 cumulative IPC: 0.23482 (Simulation time: 0 hr 14 min 32 sec) 
Heartbeat CPU  0 instructions:  117000000 cycles:  361025505 heartbeat IPC: 0.22649 cumulative IPC: 0.23471 (Simulation time: 0 hr 14 min 39 sec) 
Heartbeat CPU  0 instructions:  118000000 cycles:  365177117 heartbeat IPC: 0.24087 cumulative IPC: 0.23478 (Simulation time: 0 hr 14 min 47 sec) 
Heartbeat CPU  0 instructions:  119000002 cycles:  369524221 heartbeat IPC: 0.23004 cumulative IPC: 0.23472 (Simulation time: 0 hr 14 min 54 sec) 
Heartbeat CPU  0 instructions:  120000000 cycles:  373737458 heartbeat IPC: 0.23735 cumulative IPC: 0.23475 (Simulation time: 0 hr 15 min 2 sec) 
Heartbeat CPU  0 instructions:  121000000 cycles:  377897182 heartbeat IPC: 0.24040 cumulative IPC: 0.23482 (Simulation time: 0 hr 15 min 9 sec) 
Heartbeat CPU  0 instructions:  122000000 cycles:  382299682 heartbeat IPC: 0.22714 cumulative IPC: 0.23473 (Simulation time: 0 hr 15 min 17 sec) 
Heartbeat CPU  0 instructions:  123000001 cycles:  386506289 heartbeat IPC: 0.23772 cumulative IPC: 0.23476 (Simulation time: 0 hr 15 min 24 sec) 
Heartbeat CPU  0 instructions:  124000000 cycles:  390665882 heartbeat IPC: 0.24041 cumulative IPC: 0.23483 (Simulation time: 0 hr 15 min 32 sec) 
Heartbeat CPU  0 instructions:  125000000 cycles:  395063838 heartbeat IPC: 0.22738 cumulative IPC: 0.23474 (Simulation time: 0 hr 15 min 39 sec) 
Heartbeat CPU  0 instructions:  126000000 cycles:  399536330 heartbeat IPC: 0.22359 cumulative IPC: 0.23460 (Simulation time: 0 hr 15 min 47 sec) 
Heartbeat CPU  0 instructions:  127000002 cycles:  403682833 heartbeat IPC: 0.24117 cumulative IPC: 0.23467 (Simulation time: 0 hr 15 min 55 sec) 
Heartbeat CPU  0 instructions:  128000000 cycles:  407820511 heartbeat IPC: 0.24168 cumulative IPC: 0.23475 (Simulation time: 0 hr 16 min 2 sec) 
Heartbeat CPU  0 instructions:  129000001 cycles:  412405687 heartbeat IPC: 0.21809 cumulative IPC: 0.23455 (Simulation time: 0 hr 16 min 10 sec) 
Heartbeat CPU  0 instructions:  130000000 cycles:  416340681 heartbeat IPC: 0.25413 cumulative IPC: 0.23475 (Simulation time: 0 hr 16 min 18 sec) 
Heartbeat CPU  0 instructions:  131000003 cycles:  420392447 heartbeat IPC: 0.24681 cumulative IPC: 0.23488 (Simulation time: 0 hr 16 min 25 sec) 
Heartbeat CPU  0 instructions:  132000000 cycles:  424714309 heartbeat IPC: 0.23138 cumulative IPC: 0.23484 (Simulation time: 0 hr 16 min 33 sec) 
Heartbeat CPU  0 instructions:  133000001 cycles:  428847624 heartbeat IPC: 0.24194 cumulative IPC: 0.23491 (Simulation time: 0 hr 16 min 40 sec) 
Heartbeat CPU  0 instructions:  134000000 cycles:  433108592 heartbeat IPC: 0.23469 cumulative IPC: 0.23491 (Simulation time: 0 hr 16 min 48 sec) 
Heartbeat CPU  0 instructions:  135000003 cycles:  437417962 heartbeat IPC: 0.23205 cumulative IPC: 0.23488 (Simulation time: 0 hr 16 min 55 sec) 
Heartbeat CPU  0 instructions:  136000000 cycles:  441636181 heartbeat IPC: 0.23707 cumulative IPC: 0.23490 (Simulation time: 0 hr 17 min 3 sec) 
Heartbeat CPU  0 instructions:  137000003 cycles:  445897212 heartbeat IPC: 0.23469 cumulative IPC: 0.23490 (Simulation time: 0 hr 17 min 10 sec) 
Heartbeat CPU  0 instructions:  138000001 cycles:  450147401 heartbeat IPC: 0.23528 cumulative IPC: 0.23490 (Simulation time: 0 hr 17 min 18 sec) 
Heartbeat CPU  0 instructions:  139000001 cycles:  454320848 heartbeat IPC: 0.23961 cumulative IPC: 0.23495 (Simulation time: 0 hr 17 min 26 sec) 
Heartbeat CPU  0 instructions:  140000000 cycles:  458660730 heartbeat IPC: 0.23042 cumulative IPC: 0.23490 (Simulation time: 0 hr 17 min 33 sec) 
Finished CPU 0 instructions: 100000003 cycles: 425705782 cumulative IPC: 0.23490 (Simulation time: 0 hr 17 min 33 sec) 

ChampSim completed all CPUs

[ROI Statistics]
Core_0_instructions 100000003
Core_0_cycles 425705782
Core_0_IPC 0.23490

Core_0_branch_prediction_accuracy 96.14446
Core_0_branch_MPKI 5.75689
Core_0_average_ROB_occupancy_at_mispredict 82.88980

Core_0_L1D_total_access 44114219
Core_0_L1D_total_hit 42062247
Core_0_L1D_total_miss 2051972
Core_0_L1D_loads 26055781
Core_0_L1D_load_hit 24248436
Core_0_L1D_load_miss 1807345
Core_0_L1D_RFOs 18058438
Core_0_L1D_RFO_hit 17813811
Core_0_L1D_RFO_miss 244627
Core_0_L1D_prefetches 0
Core_0_L1D_prefetch_hit 0
Core_0_L1D_prefetch_miss 0
Core_0_L1D_writebacks 0
Core_0_L1D_writeback_hit 0
Core_0_L1D_writeback_miss 0
Core_0_L1D_prefetch_requested 0
Core_0_L1D_prefetch_dropped 0
Core_0_L1D_prefetch_issued 0
Core_0_L1D_prefetch_filled 0
Core_0_L1D_prefetch_useful 0
Core_0_L1D_prefetch_useless 0
Core_0_L1D_prefetch_late 0
Core_0_L1D_average_miss_latency 109.25184

Core_0_L1D_rq_access 31625220
Core_0_L1D_rq_forward 0
Core_0_L1D_rq_merged 5459752
Core_0_L1D_rq_to_cache 26165354
Core_0_L1D_rq_full 0

Core_0_L1D_wq_access 18544334
Core_0_L1D_wq_forward 114
Core_0_L1D_wq_merged 69348
Core_0_L1D_wq_to_cache 18474986
Core_0_L1D_wq_full 0

Core_0_L1D_pq_access 0
Core_0_L1D_pq_forward 0
Core_0_L1D_pq_merged 0
Core_0_L1D_pq_to_cache 0
Core_0_L1D_pq_full 0

Core_0_L1D_acc_epochs 401310
Core_0_L1D_acc_level_0 401310
Core_0_L1D_acc_level_1 0
Core_0_L1D_acc_level_2 0
Core_0_L1D_acc_level_3 0
Core_0_L1D_acc_level_4 0
Core_0_L1D_acc_level_5 0
Core_0_L1D_acc_level_6 0
Core_0_L1D_acc_level_7 0
Core_0_L1D_acc_level_8 0
Core_0_L1D_acc_level_9 0

Core_0_L1I_total_access 32960890
Core_0_L1I_total_hit 32901024
Core_0_L1I_total_miss 59866
Core_0_L1I_loads 32960890
Core_0_L1I_load_hit 32901024
Core_0_L1I_load_miss 59866
Core_0_L1I_RFOs 0
Core_0_L1I_RFO_hit 0
Core_0_L1I_RFO_miss 0
Core_0_L1I_prefetches 0
Core_0_L1I_prefetch_hit 0
Core_0_L1I_prefetch_miss 0
Core_0_L1I_writebacks 0
Core_0_L1I_writeback_hit 0
Core_0_L1I_writeback_miss 0
Core_0_L1I_prefetch_requested 0
Core_0_L1I_prefetch_dropped 0
Core_0_L1I_prefetch_issued 0
Core_0_L1I_prefetch_filled 0
Core_0_L1I_prefetch_useful 0
Core_0_L1I_prefetch_useless 0
Core_0_L1I_prefetch_late 0
Core_0_L1I_average_miss_latency 26.51067

Core_0_L1I_rq_access 100000142
Core_0_L1I_rq_forward 0
Core_0_L1I_rq_merged 67000608
Core_0_L1I_rq_to_cache 32999534
Core_0_L1I_rq_full 0

Core_0_L1I_wq_access 0
Core_0_L1I_wq_forward 0
Core_0_L1I_wq_merged 0
Core_0_L1I_wq_to_cache 0
Core_0_L1I_wq_full 0

Core_0_L1I_pq_access 0
Core_0_L1I_pq_forward 0
Core_0_L1I_pq_merged 0
Core_0_L1I_pq_to_cache 0
Core_0_L1I_pq_full 0

Core_0_L1I_acc_epochs 401310
Core_0_L1I_acc_level_0 401310
Core_0_L1I_acc_level_1 0
Core_0_L1I_acc_level_2 0
Core_0_L1I_acc_level_3 0
Core_0_L1I_acc_level_4 0
Core_0_L1I_acc_level_5 0
Core_0_L1I_acc_level_6 0
Core_0_L1I_acc_level_7 0
Core_0_L1I_acc_level_8 0
Core_0_L1I_acc_level_9 0

Core_0_L2C_total_access 4869163
Core_0_L2C_total_hit 2526412
Core_0_L2C_total_miss 2342751
Core_0_L2C_loads 1867132
Core_0_L2C_load_hit 786580
Core_0_L2C_load_miss 1080552
Core_0_L2C_RFOs 244613
Core_0_L2C_RFO_hit 100996
Core_0_L2C_RFO_miss 143617
Core_0_L2C_prefetches 1782947
Core_0_L2C_prefetch_hit 668628
Core_0_L2C_prefetch_miss 1114319
Core_0_L2C_writebacks 974471
Core_0_L2C_writeback_hit 970208
Core_0_L2C_writeback_miss 4263
Core_0_L2C_prefetch_requested 2692975
Core_0_L2C_prefetch_dropped 0
Core_0_L2C_prefetch_issued 2692975
Core_0_L2C_prefetch_filled 1575516
Core_0_L2C_prefetch_useful 514493
Core_0_L2C_prefetch_useless 1059700
Core_0_L2C_prefetch_late 16555
Core_0_L2C_average_miss_latency 158.05015

Core_0_L2C_rq_access 2111838
Core_0_L2C_rq_forward 0
Core_0_L2C_rq_merged 0
Core_0_L2C_rq_to_cache 2111745
Core_0_L2C_rq_full 0

Core_0_L2C_wq_access 974471
Core_0_L2C_wq_forward 105
Core_0_L2C_wq_merged 0
Core_0_L2C_wq_to_cache 974471
Core_0_L2C_wq_full 0

Core_0_L2C_pq_access 2692975
Core_0_L2C_pq_forward 0
Core_0_L2C_pq_merged 37991
Core_0_L2C_pq_to_cache 2654972
Core_0_L2C_pq_full 0

Core_0_L2C_acc_epochs 401310
Core_0_L2C_acc_level_0 67703
Core_0_L2C_acc_level_1 69248
Core_0_L2C_acc_level_2 75768
Core_0_L2C_acc_level_3 69332
Core_0_L2C_acc_level_4 39021
Core_0_L2C_acc_level_5 35680
Core_0_L2C_acc_level_6 18546
Core_0_L2C_acc_level_7 9701
Core_0_L2C_acc_level_8 4802
Core_0_L2C_acc_level_9 11509

Core_0_LLC_total_access 3113228
Core_0_LLC_total_hit 1404204
Core_0_LLC_total_miss 1709024
Core_0_LLC_loads 1068660
Core_0_LLC_load_hit 383639
Core_0_LLC_load_miss 685021
Core_0_LLC_RFOs 141036
Core_0_LLC_RFO_hit 45772
Core_0_LLC_RFO_miss 95264
Core_0_LLC_prefetches 1128784
Core_0_LLC_prefetch_hit 383010
Core_0_LLC_prefetch_miss 745774
Core_0_LLC_writebacks 774748
Core_0_LLC_writeback_hit 591783
Core_0_LLC_writeback_miss 182965
Core_0_LLC_prefetch_requested 0
Core_0_LLC_prefetch_dropped 0
Core_0_LLC_prefetch_issued 0
Core_0_LLC_prefetch_filled 1059984
Core_0_LLC_prefetch_useful 36725
Core_0_LLC_prefetch_useless 1013144
Core_0_LLC_prefetch_late 0
Core_0_LLC_average_miss_latency 168.26506

Core_0_LLC_rq_access 1209699
Core_0_LLC_rq_forward 0
Core_0_LLC_rq_merged 0
Core_0_LLC_rq_to_cache 1209696
Core_0_LLC_rq_full 0

Core_0_LLC_wq_access 774748
Core_0_LLC_wq_forward 8
Core_0_LLC_wq_merged 0
Core_0_LLC_wq_to_cache 774748
Core_0_LLC_wq_full 0

Core_0_LLC_pq_access 1592071
Core_0_LLC_pq_forward 0
Core_0_LLC_pq_merged 0
Core_0_LLC_pq_to_cache 1592066
Core_0_LLC_pq_full 0

Core_0_LLC_acc_epochs 447911
Core_0_LLC_acc_level_0 410878
Core_0_LLC_acc_level_1 16570
Core_0_LLC_acc_level_2 11342
Core_0_LLC_acc_level_3 1163
Core_0_LLC_acc_level_4 164
Core_0_LLC_acc_level_5 6754
Core_0_LLC_acc_level_6 260
Core_0_LLC_acc_level_7 241
Core_0_LLC_acc_level_8 36
Core_0_LLC_acc_level_9 503

Core_0_major_page_fault 0
Core_0_minor_page_fault 50477

scooby_st_lookup 2609116
scooby_st_hit 1313025
scooby_st_evict 1296027
scooby_st_insert 1296091
scooby_st_streaming 0

scooby_predict_called 2609116
scooby_predict_out_of_bounds 67828
scooby_predict_action_1 1950699
scooby_predict_issue_action_1 1811585
scooby_predict_hit_action_1 139114
scooby_predict_out_of_bounds_action_1 28088
scooby_predict_action_3 250206
scooby_predict_issue_action_3 231525
scooby_predict_hit_action_3 18681
scooby_predict_out_of_bounds_action_3 11689
scooby_predict_action_4 48860
scooby_predict_issue_action_4 40709
scooby_predict_hit_action_4 8151
scooby_predict_out_of_bounds_action_4 2946
scooby_predict_action_5 20016
scooby_predict_issue_action_5 17608
scooby_predict_hit_action_5 2408
scooby_predict_out_of_bounds_action_5 1604
scooby_predict_action_10 16264
scooby_predict_issue_action_10 15186
scooby_predict_hit_action_10 1078
scooby_predict_out_of_bounds_action_10 2230
scooby_predict_action_11 6561
scooby_predict_issue_action_11 6175
scooby_predict_hit_action_11 386
scooby_predict_out_of_bounds_action_11 1150
scooby_predict_action_12 9496
scooby_predict_issue_action_12 8952
scooby_predict_hit_action_12 544
scooby_predict_out_of_bounds_action_12 1822
scooby_predict_action_22 6221
scooby_predict_issue_action_22 6036
scooby_predict_hit_action_22 185
scooby_predict_out_of_bounds_action_22 2100
scooby_predict_action_23 6305
scooby_predict_issue_action_23 6200
scooby_predict_hit_action_23 105
scooby_predict_out_of_bounds_action_23 2716
scooby_predict_action_30 3796
scooby_predict_issue_action_30 3680
scooby_predict_hit_action_30 116
scooby_predict_out_of_bounds_action_30 2438
scooby_predict_action_32 3308
scooby_predict_issue_action_32 3210
scooby_predict_hit_action_32 98
scooby_predict_out_of_bounds_action_32 2550
scooby_predict_action_-1 123658
scooby_predict_issue_action_-1 86276
scooby_predict_hit_action_-1 37382
scooby_predict_out_of_bounds_action_-1 1881
scooby_predict_action_-3 38727
scooby_predict_issue_action_-3 36107
scooby_predict_hit_action_-3 2620
scooby_predict_out_of_bounds_action_-3 1981
scooby_predict_action_-6 43343
scooby_predict_issue_action_-6 41341
scooby_predict_hit_action_-6 2002
scooby_predict_out_of_bounds_action_-6 4633
scooby_predict_action_0 13828
scooby_predict_issue_action_0 0
scooby_predict_hit_action_0 0
scooby_predict_out_of_bounds_action_0 0
scooby_predict_multi_deg_called 190159
scooby_predict_predicted 2692975
scooby_predict_multi_deg 378385
scooby_predict_multi_deg_2 186170
scooby_predict_multi_deg_3 78912
scooby_predict_multi_deg_4 77364
scooby_predict_multi_deg_5 18198
scooby_predict_multi_deg_6 17741
scooby_predict_multi_deg_7 0
scooby_predict_multi_deg_8 0
scooby_predict_multi_deg_9 0
scooby_predict_multi_deg_10 0
scooby_predict_multi_deg_11 0
scooby_predict_multi_deg_12 0
scooby_predict_multi_deg_13 0
scooby_predict_multi_deg_14 0
scooby_predict_multi_deg_15 0
scooby_predict_multi_deg_16 0

scooby_selected_deg_1 2124431
scooby_selected_deg_2 108243
scooby_selected_deg_3 0
scooby_selected_deg_4 62176
scooby_selected_deg_5 0
scooby_selected_deg_6 19740
scooby_selected_deg_7 0
scooby_selected_deg_8 0
scooby_selected_deg_9 0
scooby_selected_deg_10 0
scooby_selected_deg_11 0
scooby_selected_deg_12 0
scooby_selected_deg_13 0
scooby_selected_deg_14 0
scooby_selected_deg_15 0
scooby_selected_deg_16 0

scooby_state_47134d|47|0 4784,1,2,2,1,2,2,2,2,0,2,4,2,1,2,4809,
scooby_state_47134d|4|0 4641,0,0,4,1,2,2,1,5,2,1,1,1,1,3,4665,
scooby_state_47134d|40|0 4471,3,0,0,2,3,1,2,2,1,3,2,0,1,6,4497,
scooby_state_47134d|60|0 4437,1,1,0,1,1,4,4,0,1,0,6,2,1,4,4463,
scooby_state_47134d|51|0 4438,0,3,1,3,2,0,1,0,2,2,1,1,1,3,4458,
scooby_state_47134d|13|0 4374,0,1,2,0,1,2,1,1,2,3,3,0,1,6,4397,
scooby_state_47134d|46|0 4359,1,2,0,3,2,2,0,4,1,2,4,2,1,5,4388,
scooby_state_47134d|43|0 4335,2,4,0,3,0,1,2,1,1,6,1,2,1,6,4365,
scooby_state_47134d|30|0 4311,3,4,3,2,3,4,3,2,3,3,5,2,3,7,4358,
scooby_state_47134d|17|0 4302,0,1,0,1,1,2,2,3,2,0,2,2,0,5,4323,
scooby_state_47134d|54|0 4280,0,1,5,2,1,3,0,2,1,2,4,1,2,3,4307,
scooby_state_47134d|16|0 4228,3,2,0,2,1,0,2,0,1,0,6,0,4,5,4254,
scooby_state_47134d|10|0 4197,1,1,3,2,0,1,1,1,1,1,1,3,1,1,4215,
scooby_state_47134d|44|0 4190,3,0,0,0,0,1,1,1,0,0,2,3,0,3,4204,
scooby_state_47134d|59|0 4167,2,2,2,0,0,4,1,2,2,0,3,3,3,2,4193,
scooby_state_47134d|0|0 4166,3,1,4,0,1,3,0,2,0,1,2,1,2,4,4190,
scooby_state_47134d|27|0 4152,3,2,1,1,2,1,0,0,0,0,4,1,0,3,4170,
scooby_state_47134d|50|0 4151,1,0,1,0,2,0,0,1,2,0,2,2,0,2,4164,
scooby_state_47134d|1|0 4138,3,2,1,4,1,4,0,2,2,0,0,2,1,2,4162,
scooby_state_47134d|25|0 4131,4,1,2,2,2,0,0,1,0,0,3,4,1,3,4154,
scooby_state_47134d|42|0 4124,3,2,0,3,1,0,2,0,2,3,3,2,1,3,4149,
scooby_state_47134d|36|0 4124,2,0,1,2,2,2,0,2,2,1,1,1,1,2,4143,
scooby_state_47134d|26|0 4121,2,1,1,0,1,1,2,1,2,1,1,1,5,3,4143,
scooby_state_47134d|39|0 4074,3,1,2,2,2,2,1,2,5,1,2,5,1,3,4106,
scooby_state_47134d|34|0 4080,0,3,1,0,1,1,4,0,0,0,9,2,0,4,4105,
scooby_state_47134d|23|0 4074,2,1,2,1,1,0,3,0,1,1,8,1,1,3,4099,
scooby_state_47134d|56|0 4058,4,1,3,1,2,3,1,3,0,2,3,2,3,4,4090,
scooby_state_47134d|48|0 4051,2,0,2,5,2,0,2,5,1,3,2,0,0,2,4077,
scooby_state_47134d|7|0 4022,3,2,0,0,2,0,1,1,3,1,6,5,2,3,4051,
scooby_state_47134d|32|0 4008,5,5,3,1,4,3,1,4,2,0,5,1,1,3,4046,
scooby_state_471351|4|0 3979,6,6,5,2,1,0,1,0,1,0,32,1,1,2,4037,
scooby_state_47134d|3|0 3986,2,3,3,0,3,0,2,3,2,1,6,0,3,6,4020,
scooby_state_47134d|29|0 3988,3,0,1,4,3,0,0,1,0,2,1,1,0,6,4010,
scooby_state_47134d|55|0 3953,0,1,2,1,2,0,0,0,1,1,2,2,1,7,3973,
scooby_state_47134d|6|0 3944,2,0,2,1,3,2,3,0,2,1,2,1,1,1,3965,
scooby_state_47134d|35|0 3930,0,2,2,3,2,1,2,3,2,0,4,3,2,1,3957,
scooby_state_47134d|57|0 3934,0,1,2,0,2,1,0,4,1,1,2,1,1,3,3953,
scooby_state_47134d|31|0 3877,1,1,4,0,0,2,0,2,1,2,4,4,0,2,3900,
scooby_state_47134d|33|0 3880,0,0,1,4,0,2,1,0,3,1,0,2,1,3,3898,
scooby_state_47134d|38|0 3860,0,2,1,3,0,2,3,1,1,1,2,3,2,2,3883,
scooby_state_47134d|19|0 3845,1,1,2,2,1,3,1,1,1,2,0,4,2,2,3868,
scooby_state_47134d|2|0 3847,2,0,0,0,3,3,2,1,0,1,1,0,0,4,3864,
scooby_state_47134d|45|0 3844,1,0,4,2,0,1,2,2,1,0,3,1,1,2,3864,
scooby_state_47134d|22|0 3833,3,1,1,1,4,0,0,0,1,2,3,5,1,2,3857,
scooby_state_471351|60|0 3805,6,6,3,1,0,2,1,1,1,2,23,0,2,4,3857,
scooby_state_47134d|9|0 3824,0,2,2,0,0,1,4,1,1,3,5,2,1,5,3851,
scooby_state_47134d|63|0 3806,5,4,1,3,0,3,1,1,4,0,2,2,2,5,3839,
scooby_state_471351|46|0 3751,6,5,1,0,1,1,0,1,2,1,30,2,1,4,3806,
scooby_state_47134d|49|0 3774,1,2,0,2,1,2,1,2,2,1,5,1,1,3,3798,
scooby_state_471351|47|0 3742,3,2,1,1,2,2,1,2,2,0,28,1,2,4,3793,
scooby_state_471351|17|0 3713,9,5,2,1,2,2,0,1,1,2,38,0,1,5,3782,
scooby_state_47134d|28|0 3759,0,1,2,1,4,1,1,2,1,1,2,1,0,4,3780,
scooby_state_47134d|24|0 3764,1,1,2,1,1,0,1,0,0,0,3,3,0,1,3778,
scooby_state_47134d|61|0 3724,1,1,0,2,1,1,2,2,2,0,4,1,0,3,3744,
scooby_state_47134d|53|0 3711,1,1,0,3,0,1,2,2,0,0,5,0,0,1,3727,
scooby_state_47134d|14|0 3670,1,1,5,3,2,2,4,1,2,1,5,2,2,5,3706,
scooby_state_47134d|8|0 3669,5,1,1,2,0,2,2,4,0,3,4,4,1,3,3701,
scooby_state_47134d|20|0 3669,2,2,2,0,1,1,1,2,2,2,2,1,1,4,3692,
scooby_state_47134d|62|0 3667,0,0,3,0,3,3,0,1,0,1,2,2,2,6,3690,
scooby_state_471351|30|0 3626,4,3,2,2,4,0,1,3,2,2,29,0,1,10,3689,
scooby_state_47134d|18|0 3659,2,3,0,1,0,0,3,2,1,1,5,0,1,0,3678,
scooby_state_47134d|11|0 3654,2,1,2,1,2,1,2,0,1,1,3,0,0,2,3672,
scooby_state_47134d|52|0 3636,2,1,0,3,2,0,4,1,0,1,2,2,1,6,3661,
scooby_state_47134d|58|0 3630,2,2,3,2,0,2,2,0,4,1,5,3,1,2,3659,
scooby_state_471351|27|0 3576,6,9,4,2,3,0,2,5,1,1,28,1,2,1,3641,
scooby_state_471351|13|0 3571,5,5,3,0,3,0,4,1,1,2,21,1,1,4,3622,
scooby_state_47134d|37|0 3590,1,0,1,1,2,2,2,0,2,1,8,3,0,6,3619,
scooby_state_471351|56|0 3548,3,5,2,3,2,1,1,4,2,1,32,6,2,6,3618,
scooby_state_471351|40|0 3546,11,6,1,1,3,1,1,0,3,3,20,1,3,4,3604,
scooby_state_47134d|12|0 3567,3,1,2,1,1,1,0,1,4,1,1,3,0,4,3590,
scooby_state_471351|36|0 3512,5,4,1,2,2,3,1,0,2,1,21,3,1,3,3561,
scooby_state_471351|44|0 3498,2,3,2,0,1,0,0,1,0,1,37,1,2,4,3552,
scooby_state_471351|55|0 3486,7,6,1,4,1,2,3,0,0,3,19,1,0,2,3535,
scooby_state_471351|34|0 3476,7,2,0,2,2,0,1,1,2,0,31,1,1,7,3533,
scooby_state_47134d|21|0 3516,0,0,1,1,1,0,2,1,1,1,0,0,1,1,3526,
scooby_state_471351|25|0 3463,6,4,1,2,0,0,1,3,1,2,33,3,0,5,3524,
scooby_state_471351|23|0 3458,3,3,3,2,0,1,1,0,1,0,34,1,1,4,3512,
scooby_state_471351|26|0 3456,4,1,3,1,0,0,1,1,2,1,28,1,0,3,3502,
scooby_state_47134d|5|0 3477,0,3,2,0,0,3,1,3,1,1,3,2,2,1,3499,
scooby_state_400580|22|0 2875,290,23,11,17,20,24,15,17,20,17,112,17,11,30,3499,
scooby_state_471351|54|0 3454,2,6,1,0,2,0,1,3,0,0,20,0,2,1,3492,
scooby_state_4c2586|22|0 2711,9,51,57,64,50,45,52,52,53,49,2,41,33,220,3489,
scooby_state_471351|43|0 3416,6,5,0,1,1,0,3,0,0,1,27,1,0,4,3465,
scooby_state_471351|7|0 3407,8,1,0,0,1,0,1,1,0,0,37,1,0,3,3460,
scooby_state_471351|59|0 3402,8,4,1,0,1,2,3,2,0,1,30,2,2,1,3459,
scooby_state_471351|42|0 3363,11,5,1,2,3,1,0,1,0,1,49,1,4,1,3443,
scooby_state_410598|22|0 2086,3,12,31,17,27,41,23,8,27,24,19,22,1036,43,3419,
scooby_state_47134d|15|0 3376,0,3,1,2,0,0,3,1,1,2,5,1,0,1,3396,
scooby_state_471351|10|0 3340,2,2,0,1,1,2,1,1,2,1,34,1,3,4,3395,
scooby_state_471351|28|0 3358,6,5,0,0,1,0,0,1,1,0,14,1,2,1,3390,
scooby_state_471351|50|0 3354,6,4,0,0,1,0,1,1,0,0,16,1,0,2,3386,
scooby_state_471351|6|0 3310,9,5,1,1,2,0,1,0,0,3,32,4,3,5,3376,
scooby_state_471351|3|0 3312,7,7,3,1,0,1,0,0,2,2,11,1,0,1,3348,
scooby_state_471351|57|0 3276,4,2,2,1,3,2,2,2,0,0,20,2,0,4,3320,
scooby_state_471351|1|0 3261,4,5,2,0,1,2,2,1,2,2,30,2,0,4,3318,
scooby_state_471351|2|0 3267,6,6,2,2,1,1,2,1,2,0,22,1,3,1,3317,
scooby_state_471351|51|0 3248,3,5,3,4,3,0,3,2,1,1,17,1,2,4,3297,
scooby_state_471351|29|0 3233,4,4,3,1,2,3,3,0,0,0,19,0,0,2,3274,
scooby_state_471351|63|0 3216,3,5,1,0,1,2,1,0,1,3,28,2,1,1,3265,
scooby_state_47134d|41|0 3231,1,2,2,3,1,2,2,3,1,0,6,2,0,4,3260,
scooby_state_471351|8|0 3211,5,4,1,0,0,2,1,1,1,0,22,3,1,4,3256,
scooby_state_471351|31|0 3187,9,2,5,0,3,2,1,1,0,0,29,4,1,2,3246,
scooby_state_471351|53|0 3197,2,11,1,2,1,1,1,3,1,1,20,0,3,1,3245,
scooby_state_471351|19|0 3205,2,6,2,1,2,2,1,2,1,0,17,2,0,2,3245,
scooby_state_471351|38|0 3196,6,3,0,4,1,1,1,1,0,2,23,2,0,2,3242,
scooby_state_471351|35|0 3187,5,7,1,0,1,0,2,0,2,2,26,1,0,2,3236,
scooby_state_471351|32|0 3169,8,6,5,3,5,1,1,2,3,0,16,0,2,8,3229,
scooby_state_471351|48|0 3170,4,5,1,3,2,0,0,2,0,2,29,0,2,2,3222,
scooby_state_471351|16|0 3135,7,8,0,0,2,0,1,1,1,1,27,1,2,9,3195,
scooby_state_471351|39|0 3144,12,3,0,0,0,1,1,1,3,0,17,3,1,4,3190,
scooby_state_471351|14|0 3145,5,5,3,0,1,2,1,2,0,0,20,1,1,3,3189,
scooby_state_47d5c0|25|0 2639,9,1,25,66,32,30,28,30,25,28,118,8,3,143,3185,
scooby_state_471351|0|0 3110,3,5,0,2,0,0,0,0,1,1,25,0,1,3,3151,
scooby_state_471351|20|0 3103,3,6,1,0,1,1,0,1,0,0,28,0,2,2,3148,
scooby_state_471351|52|0 3060,2,7,1,0,2,1,0,2,1,3,25,1,3,2,3110,
scooby_state_471351|61|0 3012,7,6,0,1,0,3,0,2,2,1,32,0,1,3,3070,
scooby_state_471351|11|0 3009,5,6,0,1,2,3,0,0,1,1,31,4,2,1,3066,
scooby_state_471351|33|0 2986,6,5,2,0,1,2,2,0,3,1,29,1,1,1,3040,
scooby_state_471351|24|0 2980,5,2,0,2,0,2,1,0,2,1,16,1,2,3,3017,
scooby_state_471351|58|0 2965,5,6,1,2,1,0,3,0,1,1,26,1,3,1,3016,
scooby_state_471351|21|0 2941,2,5,0,2,0,3,4,2,1,1,23,2,0,2,2988,
scooby_state_471351|49|0 2955,1,3,1,1,0,1,2,1,3,0,17,0,0,1,2986,
scooby_state_471351|18|0 2919,6,4,1,2,1,5,3,0,1,0,26,2,1,2,2973,
scooby_state_471351|12|0 2925,2,4,2,0,0,2,4,1,2,1,22,0,2,6,2973,
scooby_state_471351|45|0 2930,7,4,0,2,1,0,0,2,1,0,22,1,2,0,2972,
scooby_state_471351|5|0 2868,9,7,2,0,0,1,2,1,0,1,22,2,1,3,2919,
scooby_state_471351|22|0 2841,6,5,0,2,3,3,4,0,2,2,28,0,2,0,2898,
scooby_state_471351|9|0 2859,6,0,1,3,1,0,0,2,2,1,16,3,0,2,2896,
scooby_state_471351|37|0 2800,5,8,2,0,0,0,0,3,2,1,12,1,0,6,2840,
scooby_state_624580|22|0 2088,379,24,18,16,31,21,19,15,26,25,3,12,8,70,2755,
scooby_state_471351|15|0 2665,4,6,1,0,0,3,0,2,1,2,19,2,1,3,2709,
scooby_state_471351|41|0 2630,6,2,3,0,0,1,0,3,0,0,20,1,1,1,2668,
scooby_state_471351|62|0 2584,3,3,1,1,0,0,1,1,0,0,19,1,1,0,2615,
scooby_state_400580|2|0 2060,210,21,12,10,12,17,14,11,17,12,83,10,7,22,2518,
scooby_state_47e5a0|22|0 2198,11,16,23,14,21,21,24,25,21,22,11,26,15,43,2491,
scooby_state_444197|2|0 1947,20,68,21,21,26,21,23,23,20,25,83,56,13,42,2409,
scooby_state_416e91|61|0 1590,44,44,24,69,51,36,32,26,34,35,57,34,2,176,2254,
scooby_state_416eb9|11|0 1822,76,11,11,36,17,14,10,11,15,10,57,11,45,23,2169,
scooby_state_55b7b0|33|0 1761,32,29,25,30,37,27,33,37,33,22,16,21,5,57,2165,
scooby_state_621435|49|0 1996,55,0,3,4,2,5,3,1,4,3,1,17,7,8,2109,
scooby_state_623f20|33|0 1883,2,11,12,49,6,5,4,15,9,7,3,36,14,22,2078,
scooby_state_400640|3|0 1662,21,14,74,37,23,18,21,16,23,26,46,29,14,40,2064,
scooby_state_63fb0d|7|0 1651,9,136,27,20,9,15,12,14,21,16,1,17,25,24,1997,
scooby_state_47d596|22|0 1726,2,0,14,26,20,20,20,26,21,23,4,4,33,33,1972,
scooby_state_47133d|26|0 1909,23,0,1,2,1,1,0,2,1,3,1,0,1,2,1947,
scooby_state_550140|5|0 1334,28,21,3,27,28,27,27,19,26,26,15,32,240,40,1893,
scooby_state_55b6eb|58|0 1771,8,3,4,5,6,10,6,9,8,8,15,7,12,18,1890,
scooby_state_4e9fc4|60|0 1670,7,75,4,9,7,6,4,5,6,5,0,19,1,14,1832,
scooby_state_43b438|51|0 982,21,54,59,40,49,44,34,37,37,33,221,56,55,100,1822,
scooby_state_444140|5|0 1229,47,35,48,28,46,41,40,41,41,45,24,47,26,83,1821,
scooby_state_620a3f|55|0 1498,12,22,65,12,15,12,13,11,14,14,39,15,1,23,1766,
scooby_state_47133d|28|0 1730,22,1,1,3,0,1,2,1,0,1,1,0,1,2,1766,
scooby_state_444028|56|0 15,1482,102,17,32,10,11,12,6,10,6,31,4,0,21,1759,
scooby_state_55bb13|7|0 1628,2,1,1,1,3,0,1,1,0,4,17,3,1,4,1667,
scooby_state_55bb13|49|0 1588,3,2,3,4,1,1,0,1,2,0,6,3,2,3,1619,
scooby_state_55bb13|45|0 1560,1,1,3,3,1,6,1,0,2,2,8,0,1,5,1594,
scooby_state_624580|23|0 1227,185,11,8,12,15,10,9,10,12,10,1,10,5,31,1556,
scooby_state_41cc4f|4|0 846,242,2,27,6,15,27,44,20,17,13,185,36,16,48,1544,
scooby_state_55bb13|1|0 1484,1,3,2,2,2,2,0,4,3,1,8,1,0,5,1518,
scooby_state_4ebfa0|19|0 1116,8,33,27,16,23,28,30,31,31,31,61,23,0,57,1515,
scooby_state_55bb13|11|0 1490,1,0,2,2,1,2,1,0,1,1,5,0,0,3,1509,
scooby_state_55bb13|32|0 1473,4,0,1,3,3,1,3,0,3,2,7,1,4,1,1506,
scooby_state_63fad6|46|-1 1051,139,228,0,1,0,0,0,1,0,0,68,0,7,0,1495,
scooby_state_55bb13|48|0 1470,1,1,2,0,1,0,0,0,1,0,9,0,1,2,1488,
scooby_state_47133d|27|0 1450,15,0,4,1,2,0,0,1,1,0,2,0,0,2,1478,
scooby_state_55bb13|56|0 1449,1,3,2,1,3,1,3,3,2,0,5,0,1,3,1477,
scooby_state_621e83|59|0 1239,9,15,11,7,16,15,14,12,10,14,14,41,18,41,1476,
scooby_state_47133d|4|0 1456,10,0,1,0,1,1,0,0,0,0,0,0,0,0,1469,
scooby_state_55bb13|26|0 1428,1,6,2,0,1,2,0,5,1,2,15,2,2,2,1469,
scooby_state_55bb13|2|0 1433,0,1,2,4,3,2,2,1,0,1,11,0,0,2,1462,
scooby_state_55bb13|43|0 1412,1,0,1,4,3,0,2,0,1,3,11,1,1,5,1445,
scooby_state_555f8f|10|0 983,1,4,23,18,16,16,11,14,15,17,211,12,67,35,1443,
scooby_state_55bb13|54|0 1377,0,0,0,2,5,1,3,1,3,2,23,3,0,5,1425,
scooby_state_55bb13|47|0 1370,2,3,1,4,1,0,0,3,3,2,18,5,2,5,1419,
scooby_state_55bb13|28|0 1383,3,1,0,2,0,1,3,0,1,0,10,2,3,2,1411,
scooby_state_55bb13|24|0 1387,0,0,0,3,0,0,0,0,3,0,11,3,0,2,1409,
scooby_state_55bb13|41|0 1367,3,3,3,3,0,4,0,3,3,1,13,2,1,2,1408,
scooby_state_55bb13|55|0 1367,4,5,1,2,2,3,0,4,1,0,8,1,0,4,1402,
scooby_state_55bb13|59|0 1370,2,0,1,1,0,0,0,1,3,0,13,0,0,5,1396,
scooby_state_47133d|2|0 1367,12,0,0,1,1,2,1,1,0,1,1,1,0,1,1389,
scooby_state_54ff8c|12|-13 892,382,0,1,24,1,4,6,3,0,1,49,12,0,4,1379,
scooby_state_620961|24|0 1013,1,8,236,21,13,7,8,14,11,8,7,0,1,25,1373,
scooby_state_47d430|16|0 954,223,39,11,12,9,11,9,15,12,13,13,3,10,18,1352,
scooby_state_55bb13|39|0 1318,0,3,4,1,1,6,0,1,0,0,17,0,0,0,1351,
scooby_state_55bb13|23|0 1317,2,1,1,0,3,1,4,0,3,0,16,1,1,0,1350,
scooby_state_55bb13|27|0 1318,2,3,2,0,1,2,1,1,2,0,14,2,0,2,1350,
scooby_state_47133d|11|0 1323,11,0,2,0,0,0,2,1,0,0,3,0,0,1,1343,
scooby_state_55bb13|4|0 1293,2,3,9,1,3,6,1,5,0,0,10,1,1,5,1340,
scooby_state_55bb13|8|0 1308,2,1,0,1,4,0,6,3,0,1,10,3,0,0,1339,
scooby_state_47133d|48|0 1321,9,0,1,0,2,0,0,0,0,0,2,0,0,1,1336,
scooby_state_55bb13|17|0 1312,1,2,2,1,1,2,0,0,2,0,9,0,0,1,1333,
scooby_state_55bb13|19|0 1306,1,2,2,1,2,2,1,2,0,1,8,1,0,3,1332,
scooby_state_55bb13|16|0 1312,1,1,0,2,2,0,1,0,1,0,10,1,0,0,1331,
scooby_state_55bb13|29|0 1280,2,2,2,2,5,0,5,1,4,0,11,1,1,3,1319,
scooby_state_620b35|56|1 460,706,23,3,17,15,6,10,10,8,11,18,7,0,20,1314,
scooby_state_4ea048|61|1 663,40,66,1,0,3,3,7,5,6,9,2,16,449,41,1311,
scooby_state_47133d|3|0 1282,19,0,0,1,0,0,0,0,0,1,1,1,0,0,1305,
scooby_state_47133d|1|0 1274,17,1,0,0,1,1,3,0,3,1,1,0,0,2,1304,
scooby_state_55bb13|46|0 1259,4,0,4,4,3,2,2,0,1,4,3,2,4,7,1299,
scooby_state_47133d|36|0 1279,13,0,1,0,1,0,0,0,0,0,0,1,1,1,1297,
scooby_state_55bb13|44|0 1248,3,0,4,0,1,1,0,0,5,2,18,3,3,6,1294,
scooby_state_47133d|10|0 1269,6,0,1,1,1,0,0,0,0,1,3,1,1,2,1286,
scooby_state_47133d|30|0 1257,20,0,0,1,0,0,0,1,0,1,1,1,0,2,1284,
scooby_state_55bb13|31|0 1249,1,0,1,0,2,0,1,0,3,0,14,1,0,1,1273,
scooby_state_55b745|4|0 588,300,164,20,29,18,28,18,15,15,14,19,3,4,30,1265,
scooby_state_55bb13|20|0 1235,0,1,2,0,2,3,2,1,1,0,11,3,0,1,1262,
scooby_state_55bb13|25|0 1234,1,2,0,2,1,1,0,0,1,0,13,1,1,5,1262,
scooby_state_55bb13|40|0 1226,2,2,4,1,1,3,1,2,2,1,11,3,0,1,1260,
scooby_state_55bb13|33|0 1238,1,1,0,1,1,1,0,1,0,4,8,0,0,4,1260,
scooby_state_556027|0|0 705,474,2,1,6,6,15,5,6,5,7,0,8,0,16,1256,
scooby_state_47133d|9|0 1228,14,0,1,0,0,0,3,0,2,0,3,0,0,1,1252,
scooby_state_47133d|8|0 1225,12,2,1,0,0,1,1,2,1,1,1,1,1,0,1249,
scooby_state_47133d|47|0 1226,15,1,1,0,1,1,0,0,1,1,1,0,0,0,1248,
scooby_state_4ea0c7|6|0 2,0,0,0,1,0,0,1,0,1,0,0,0,1242,0,1247,
scooby_state_55bb13|14|0 1220,1,1,1,0,1,0,0,0,1,0,13,2,0,3,1243,
scooby_state_55bb13|0|0 1204,4,1,1,2,0,1,3,0,3,0,14,3,0,3,1239,
scooby_state_54f002|0|0 991,0,34,9,22,11,10,10,13,13,10,1,6,87,22,1239,
scooby_state_433f36|60|0 435,39,3,2,11,10,9,58,4,7,8,2,7,612,30,1237,
scooby_state_47133d|32|0 1221,10,0,1,0,1,1,0,0,0,0,1,0,1,1,1237,
scooby_state_55bb13|57|0 1207,2,3,0,0,1,1,1,1,0,1,9,4,1,4,1235,
scooby_state_55bb13|34|0 1205,0,3,1,5,1,1,0,0,2,1,11,2,0,3,1235,
scooby_state_55bb13|60|0 1203,0,3,2,2,3,2,2,3,1,1,9,2,0,1,1234,
scooby_state_47133d|31|0 1203,17,0,1,3,1,0,1,1,1,1,0,0,1,1,1231,
scooby_state_55bb13|12|0 1203,0,0,1,1,1,0,0,1,1,4,5,1,0,5,1223,
scooby_state_55bb13|52|0 1193,1,1,1,2,0,1,0,0,2,2,12,0,1,1,1217,
scooby_state_47133d|40|0 1197,12,0,1,0,1,0,0,0,1,1,0,2,0,1,1216,
scooby_state_47133d|45|0 1200,13,0,0,0,1,0,1,0,0,0,1,0,0,0,1216,
scooby_state_55bb13|3|0 1180,2,3,3,1,2,1,0,4,1,0,15,1,0,2,1215,
scooby_state_55003d|4|0 1193,16,0,0,1,0,0,0,1,0,1,0,1,1,0,1214,
scooby_state_55bb13|30|0 1178,1,2,0,0,2,0,0,2,3,0,15,3,0,1,1207,
scooby_state_55bb13|62|0 1182,3,0,1,2,0,0,0,0,1,0,7,1,0,5,1202,
scooby_state_55bb13|15|0 1169,1,2,2,0,2,0,1,1,1,1,16,3,0,2,1201,
scooby_state_548420|16|0 794,131,0,9,3,8,13,8,12,7,13,5,23,144,24,1194,
scooby_state_47d596|22|6 970,34,2,5,3,1,4,2,3,5,1,77,75,3,7,1192,
scooby_state_55bb13|13|0 1165,4,4,0,2,2,0,1,0,1,2,7,1,0,2,1191,
scooby_state_47133d|39|0 1152,23,0,2,3,0,1,1,1,1,0,1,1,2,0,1188,
scooby_state_47133d|6|0 1165,16,1,0,0,0,2,0,1,0,0,1,0,2,0,1188,
scooby_state_55bb13|6|0 1171,0,1,1,0,2,0,0,1,0,0,7,0,1,3,1187,
scooby_state_55bb13|51|0 1158,0,1,1,1,1,1,0,0,3,1,12,2,0,5,1186,
scooby_state_55bb13|50|0 1158,1,1,1,2,2,1,0,0,2,1,8,0,3,2,1182,
scooby_state_55bb13|42|0 1142,1,1,3,2,0,5,0,0,0,0,20,2,1,2,1179,
scooby_state_43b43b|54|48 751,8,10,16,30,27,25,26,95,14,27,3,30,40,74,1176,
scooby_state_47133d|33|0 1146,19,1,0,3,3,1,0,0,0,1,0,0,0,0,1174,
scooby_state_47133d|38|0 1155,11,0,0,2,0,0,0,0,0,0,0,0,0,1,1169,
scooby_state_62919a|25|12 824,0,97,16,24,20,18,20,21,24,20,12,9,20,44,1169,
scooby_state_47133d|0|0 1139,21,1,2,0,1,0,0,2,0,0,2,0,1,0,1169,
scooby_state_47133d|44|0 1146,13,0,0,1,1,1,1,1,2,2,0,0,0,0,1168,
scooby_state_55bb13|38|0 1143,2,0,1,2,3,0,0,1,1,0,6,2,1,1,1163,
scooby_state_47133d|7|0 1139,19,1,0,0,0,0,0,1,0,0,0,1,0,1,1162,
scooby_state_55bb13|63|0 1135,1,3,0,2,1,0,1,0,2,0,12,4,0,0,1161,
scooby_state_55bb13|21|0 1127,1,0,1,2,2,1,0,0,2,0,11,1,0,4,1152,
scooby_state_55bb13|53|0 1125,1,2,2,1,2,1,0,1,0,2,7,3,0,2,1149,
scooby_state_47133d|30|4 1052,2,11,9,8,8,8,7,10,3,4,3,17,0,5,1147,
scooby_state_47133d|34|0 1126,18,0,2,0,0,1,0,0,0,0,0,0,0,0,1147,
scooby_state_55bb13|5|0 1119,1,0,1,2,1,0,2,0,4,0,11,1,0,3,1145,
scooby_state_47133d|25|0 1121,16,0,0,1,1,0,0,0,0,0,0,2,1,0,1142,
scooby_state_55bb13|61|0 1122,2,2,0,3,1,0,1,1,1,0,6,0,0,1,1140,
scooby_state_47133d|19|0 1114,11,1,0,0,0,1,1,2,1,1,1,0,0,1,1134,
scooby_state_47133d|23|0 1100,20,2,0,0,2,1,0,1,0,1,1,3,1,1,1133,
scooby_state_47133d|5|0 1107,17,0,1,0,1,1,1,0,1,0,0,0,0,0,1129,
scooby_state_55bb13|58|0 1105,0,2,1,2,1,0,0,1,1,1,6,3,0,6,1129,
scooby_state_47133d|18|0 1113,4,0,2,0,0,1,0,1,2,1,0,1,1,2,1128,
scooby_state_55bb13|37|0 1106,3,1,2,1,3,0,0,0,1,0,6,1,0,4,1128,
scooby_state_47133d|49|0 1104,16,2,0,0,0,1,1,0,0,0,0,0,0,0,1124,
scooby_state_55bb13|35|0 1104,1,1,2,1,1,2,1,0,1,1,6,0,0,3,1124,
scooby_state_55bb13|9|0 1098,2,1,0,2,1,0,0,1,4,1,6,0,0,6,1122,
scooby_state_55bb13|18|0 1098,1,0,3,1,3,2,4,0,0,0,6,3,0,1,1122,
scooby_state_47133d|13|0 1104,14,0,0,0,0,2,0,0,0,0,0,0,0,1,1121,
scooby_state_55b6eb|29|0 1049,3,3,2,4,3,6,6,4,3,2,7,5,8,15,1120,
scooby_state_47133d|12|0 1094,16,0,0,0,0,0,1,1,1,0,0,1,0,0,1114,
scooby_state_55bb13|22|0 1089,2,0,1,2,1,0,1,0,1,0,9,1,0,1,1108,
scooby_state_47133d|14|0 1085,10,0,1,0,1,1,0,2,0,0,0,0,1,0,1101,
scooby_state_47133d|17|0 1081,13,0,1,0,1,0,0,1,1,1,0,0,1,0,1100,
scooby_state_47133d|40|9 1033,0,10,5,5,4,6,5,9,2,2,8,4,1,5,1099,
scooby_state_550191|6|1 910,0,12,11,10,3,5,7,5,4,9,93,1,1,13,1084,
scooby_state_47133d|37|0 1067,10,1,1,0,0,0,1,1,0,0,0,1,1,0,1083,
scooby_state_49c1b0|6|0 949,0,0,14,3,13,13,15,16,14,14,0,0,0,19,1070,
scooby_state_47e5da|24|0 818,0,1,7,0,0,0,1,0,0,3,76,1,161,0,1068,
scooby_state_47133d|20|0 1052,8,0,0,1,1,0,0,1,1,0,2,0,0,0,1066,
scooby_state_555f27|60|0 682,6,8,18,14,15,11,16,15,17,18,151,23,10,54,1058,
scooby_state_47133d|22|0 1022,25,2,1,0,0,1,0,0,0,1,2,2,0,0,1056,
scooby_state_55bb13|10|0 1027,2,3,0,4,1,0,0,0,1,1,5,1,0,1,1046,
scooby_state_47133d|29|0 1029,10,0,0,0,0,0,0,0,2,1,1,1,2,0,1046,
scooby_state_47133d|16|0 1020,10,1,0,1,1,0,0,1,1,0,2,0,2,3,1042,
scooby_state_47133d|34|6 0,1021,0,0,1,0,0,0,0,0,0,19,0,0,0,1041,
scooby_state_47133d|21|0 1022,14,0,0,1,0,1,0,1,1,0,0,0,0,0,1040,
scooby_state_55bb13|36|0 1011,2,1,2,1,1,2,2,0,2,0,12,2,0,2,1040,
scooby_state_47133d|35|0 1023,10,1,0,0,0,0,2,0,0,1,1,1,0,0,1039,
scooby_state_55b6fe|25|-1 206,7,2,0,1,1,0,0,1,0,0,3,0,811,1,1033,
scooby_state_47133d|15|0 1014,14,1,0,0,0,1,0,0,1,1,0,0,0,1,1033,
scooby_state_55b6eb|47|0 916,2,4,14,3,10,2,13,9,4,10,8,2,8,25,1030,
scooby_state_550075|18|15 665,140,1,0,192,1,0,3,1,2,1,0,6,3,1,1016,
scooby_state_64e160|5|0 655,46,19,23,51,17,19,15,12,18,20,18,69,0,32,1014,
scooby_state_47133d|41|0 994,14,0,0,1,0,1,0,1,0,1,1,0,0,1,1014,
scooby_state_47133d|46|0 985,15,0,0,0,0,1,0,2,0,3,1,1,0,1,1009,
scooby_state_47133d|24|0 985,14,0,2,0,1,1,0,1,0,1,0,0,0,2,1007,
scooby_state_47133d|42|0 973,13,0,1,0,2,0,0,1,0,0,1,1,1,0,993,
scooby_state_41d1f7|10|0 34,3,2,1,0,0,1,0,0,0,5,903,37,5,1,992,
scooby_state_47133d|38|8 907,22,4,6,3,3,5,6,10,7,3,5,0,2,8,991,
scooby_state_47133d|50|0 966,11,0,1,1,0,0,0,0,0,0,0,1,0,0,980,
scooby_state_47133d|52|0 966,9,1,0,0,1,0,0,0,2,0,0,0,1,0,980,
scooby_state_4ea019|4|1 33,934,0,0,0,0,0,0,0,0,0,0,0,0,0,967,
scooby_state_506f20|60|0 547,19,6,6,10,10,12,7,46,10,12,243,14,5,17,964,
scooby_state_47133d|43|0 931,14,4,0,0,3,0,1,0,0,0,1,0,2,2,958,
scooby_state_47133d|51|0 935,9,1,1,1,0,0,0,0,1,0,1,1,2,1,953,
scooby_state_4ea019|61|1 35,914,0,0,0,0,0,0,0,0,1,0,0,0,0,950,
scooby_state_47133d|53|0 926,7,1,1,2,0,3,0,2,1,0,0,0,0,2,945,
scooby_state_47133d|54|0 923,9,0,1,0,0,2,0,1,1,0,1,0,0,1,939,
scooby_state_4ea019|43|1 38,890,0,0,0,0,0,0,0,0,0,0,0,0,0,928,
scooby_state_62241f|16|0 765,5,0,2,7,4,6,7,4,6,0,3,6,98,8,921,
scooby_state_4ea019|39|1 30,887,0,1,0,0,0,0,0,0,0,0,1,0,0,919,
scooby_state_4ea019|25|1 25,882,0,1,1,0,0,0,1,0,0,0,0,0,0,910,
scooby_state_47133d|59|0 882,19,3,0,1,2,0,0,0,0,0,1,0,0,0,908,
scooby_state_4ea019|22|1 24,884,0,0,0,0,0,0,0,0,0,0,0,0,0,908,
scooby_state_47133d|58|0 880,13,1,2,1,1,2,0,0,1,1,0,2,0,1,905,
scooby_state_623f09|52|-7 636,0,0,29,26,31,20,17,7,16,16,29,19,23,34,903,
scooby_state_4441eb|4|0 1,759,13,31,13,8,5,11,5,8,12,1,9,10,14,900,
scooby_state_4ea019|11|1 27,868,0,0,0,0,0,0,0,0,0,0,0,1,0,896,
scooby_state_47133d|32|5 809,0,5,6,7,9,6,2,6,6,4,14,4,2,7,887,
scooby_state_47133d|55|0 875,8,0,1,0,0,1,0,0,0,0,0,0,1,0,886,
scooby_state_621f26|60|0 770,44,2,5,10,4,5,5,5,3,5,4,7,3,11,883,
scooby_state_47133d|46|12 682,4,0,0,0,2,4,1,3,1,2,0,0,175,4,878,
scooby_state_4ea019|7|1 27,840,0,1,0,0,0,0,0,0,0,0,0,0,1,869,
scooby_state_4ea019|36|1 26,842,0,0,0,0,0,0,0,0,0,0,0,0,0,868,
scooby_state_4ea019|50|1 34,832,0,0,2,0,0,0,0,0,0,0,0,0,0,868,
scooby_state_47133d|56|0 842,15,0,0,1,0,0,1,0,2,1,1,0,2,1,866,
scooby_state_4ea019|54|1 29,835,0,0,0,0,0,0,0,0,1,0,0,0,0,865,
scooby_state_54fefc|7|0 851,12,0,0,0,0,0,0,2,0,0,0,0,0,0,865,
scooby_state_550ff8|47|1 858,1,0,2,2,0,0,0,0,0,0,0,0,0,0,863,
scooby_state_445148|5|0 302,0,7,478,1,15,2,1,2,2,2,2,5,39,3,861,
scooby_state_550ff8|62|1 851,0,0,5,0,0,0,0,0,1,0,0,1,0,1,859,
scooby_state_4ea019|58|1 30,828,0,0,0,0,0,0,1,0,0,0,0,0,0,859,
scooby_state_4ea019|45|1 18,838,0,0,0,0,1,1,0,0,0,0,0,0,0,858,
scooby_state_550ff8|54|1 844,0,1,6,1,1,0,0,1,1,0,0,0,0,1,856,
scooby_state_4ea019|16|1 22,833,0,0,0,0,0,0,0,0,0,0,0,0,0,855,
scooby_state_47133d|50|14 783,8,2,5,4,3,4,5,4,4,5,13,7,1,5,853,
scooby_state_4ea019|8|1 34,818,0,0,0,0,0,0,0,0,0,0,0,0,0,852,
scooby_state_47133d|60|0 830,13,0,1,1,0,0,1,1,0,1,1,0,0,0,849,
scooby_state_549030|0|0 724,7,6,7,8,6,7,7,5,4,3,51,1,2,9,847,
scooby_state_4ea019|46|1 19,825,0,0,0,0,0,0,0,0,0,1,1,0,1,847,
scooby_state_550ff8|63|1 838,0,0,4,0,1,0,0,0,1,0,1,1,0,0,846,
scooby_state_556420|16|16 738,0,8,9,4,7,4,5,8,6,10,6,6,8,24,843,
scooby_state_4ea019|15|1 34,806,0,0,0,0,0,0,0,0,0,0,0,0,0,840,
scooby_state_4ea019|35|1 28,809,1,0,0,0,0,0,0,0,0,0,1,0,1,840,
scooby_state_54fefc|0|0 833,5,0,0,1,0,1,0,0,0,0,0,0,0,0,840,
scooby_state_4ea019|52|1 25,813,0,1,0,0,0,0,0,0,0,0,0,0,0,839,
scooby_state_550ff8|49|1 834,0,0,2,1,0,0,0,0,0,1,0,0,0,0,838,
scooby_state_4ea019|6|1 14,822,0,0,1,0,0,0,0,0,0,0,0,0,0,837,
scooby_state_47133d|57|0 818,12,0,1,2,0,1,0,0,0,1,0,0,0,2,837,
scooby_state_47133d|62|0 809,20,0,1,1,0,0,0,0,0,1,1,0,2,0,835,
scooby_state_54fe9b|1|0 832,0,0,1,0,0,0,1,0,0,0,0,0,0,0,834,
scooby_state_54fefc|9|0 828,6,0,0,0,0,0,0,0,0,0,0,0,0,0,834,
scooby_state_4ea019|14|1 33,799,0,0,0,0,0,0,0,0,0,0,0,0,0,832,
scooby_state_623f09|52|0 568,95,14,63,5,1,4,4,2,3,4,1,42,22,3,831,
scooby_state_4ea019|40|1 20,807,0,0,0,0,0,0,0,0,1,0,0,1,0,829,
scooby_state_4ea019|10|1 26,802,0,0,0,1,0,0,0,0,0,0,0,0,0,829,
scooby_state_622002|0|0 676,4,4,3,3,10,5,8,38,4,5,2,48,3,15,828,
scooby_state_47133d|63|0 812,8,1,1,0,1,0,0,0,0,0,1,1,0,1,826,
scooby_state_4ea019|38|1 19,802,0,0,0,0,0,1,0,0,0,0,0,1,1,824,
scooby_state_47133d|56|17 507,117,16,4,4,3,7,5,6,2,6,4,10,122,10,823,
scooby_state_4ea019|47|1 28,793,0,0,0,0,0,0,0,0,0,0,0,0,0,821,
scooby_state_47133d|58|18 735,0,16,7,7,6,6,4,6,6,6,2,2,9,8,820,
scooby_state_54fefc|2|0 804,15,0,0,0,0,0,1,0,0,0,0,0,0,0,820,
scooby_state_4ea019|24|1 27,791,0,0,0,0,0,1,0,0,0,0,1,0,0,820,
scooby_state_4ea019|31|1 33,785,0,0,0,0,0,0,0,1,0,0,0,0,0,819,
scooby_state_4ea019|21|1 29,788,0,0,0,0,0,0,0,1,1,0,0,0,0,819,
scooby_state_4ea019|19|1 26,787,0,0,0,0,0,1,0,0,0,0,0,0,0,814,
scooby_state_4ea019|57|1 27,784,0,1,0,0,0,0,0,0,0,0,0,0,1,813,
scooby_state_47133d|54|16 630,97,3,5,8,8,6,5,5,7,6,9,12,4,8,813,
scooby_state_4ea019|18|1 22,785,0,0,0,1,0,1,0,0,0,0,0,0,0,809,
scooby_state_4ea019|60|1 18,789,1,0,0,0,0,1,0,0,0,0,0,0,0,809,
scooby_state_4ea019|29|1 33,773,0,0,0,0,0,0,1,0,0,0,0,0,0,807,
scooby_state_550ff8|51|1 794,0,0,7,0,0,0,0,0,0,0,1,1,0,0,803,
scooby_state_4ea019|2|1 25,774,0,0,0,0,0,0,0,0,0,0,0,0,0,799,
scooby_state_4ea019|13|1 20,776,0,0,0,0,0,0,0,0,0,1,0,1,0,798,
scooby_state_4ea019|32|1 23,774,0,0,0,0,0,0,0,0,0,1,0,0,0,798,
scooby_state_4ea019|27|1 22,773,1,0,1,0,0,0,0,0,0,0,0,0,0,797,
scooby_state_4ea019|48|1 17,778,0,0,0,0,0,0,0,0,0,0,0,1,0,796,
scooby_state_4ea019|63|1 14,780,0,0,1,0,0,0,0,0,0,1,0,0,0,796,
scooby_state_54fefc|17|0 784,10,0,0,0,0,0,0,0,1,0,0,0,0,0,795,
scooby_state_55100a|4|0 593,22,107,6,5,6,3,5,3,9,5,0,1,0,28,793,
scooby_state_4ea019|49|1 19,771,1,0,0,0,0,0,0,0,0,0,0,0,0,791,
scooby_state_550ff8|60|1 775,0,0,9,2,1,0,0,0,0,0,0,0,0,1,788,
scooby_state_6291c1|7|0 289,460,3,0,0,2,1,0,28,0,0,0,0,2,2,787,
scooby_state_4ea019|51|1 22,765,0,0,0,0,0,0,0,0,0,0,0,0,0,787,
scooby_state_54fefc|15|0 775,9,0,0,0,1,0,0,0,1,0,0,0,0,0,786,
scooby_state_54fefc|13|0 775,11,0,0,0,0,0,0,0,0,0,0,0,0,0,786,
scooby_state_4ea019|55|1 27,759,0,0,0,0,0,0,0,0,0,0,0,0,0,786,
scooby_state_550ff8|44|-17 771,0,0,9,0,0,0,0,0,0,0,2,0,0,2,784,
scooby_state_4ea019|23|1 17,765,0,1,0,0,0,0,0,0,0,0,0,0,0,783,
scooby_state_4ea019|28|1 25,757,0,0,0,0,0,0,0,0,0,0,0,0,0,782,
scooby_state_4ea019|20|1 20,762,0,0,0,0,0,0,0,0,0,0,0,0,0,782,
scooby_state_4ea019|30|1 16,764,0,0,0,0,0,1,0,0,0,0,0,0,0,781,
scooby_state_4ea019|56|1 19,760,0,0,0,0,0,0,0,0,0,0,0,0,0,779,
scooby_state_4ea019|26|1 16,758,0,0,0,0,1,0,0,2,1,0,0,0,0,778,
scooby_state_54fefc|5|0 763,12,0,0,0,1,0,0,0,0,0,0,0,0,0,776,
scooby_state_47133d|61|0 756,10,2,1,0,1,0,0,0,0,1,1,1,1,0,774,
scooby_state_416eb9|8|0 646,39,3,4,13,4,3,6,4,1,6,19,4,17,5,774,
scooby_state_4ea019|33|1 20,754,0,0,0,0,0,0,0,0,0,0,0,0,0,774,
scooby_state_4ea019|42|1 19,753,0,0,1,0,0,0,0,0,0,0,0,0,0,773,
scooby_state_4ea019|3|1 15,755,0,0,0,1,0,0,0,0,0,0,0,0,1,772,
scooby_state_550ff8|2|-17 763,1,0,2,0,0,0,1,0,0,0,1,1,1,1,771,
scooby_state_4ea019|9|1 22,747,0,0,0,0,0,0,1,0,0,0,0,0,0,770,
scooby_state_54fefc|6|0 754,14,0,0,0,0,0,0,0,0,0,1,0,0,0,769,
scooby_state_54fe9b|0|0 767,0,0,0,0,0,0,0,0,0,0,0,0,0,0,767,
scooby_state_41cc81|4|0 99,668,0,0,0,0,0,0,0,0,0,0,0,0,0,767,
scooby_state_55b745|4|-21 766,0,0,0,0,0,0,0,1,0,0,0,0,0,0,767,
scooby_state_4ea019|37|1 15,749,0,0,1,0,0,0,0,0,0,0,0,0,1,766,
scooby_state_550ff8|57|1 748,0,1,7,1,0,3,0,0,1,2,0,1,0,0,764,
scooby_state_47133d|42|10 637,1,78,4,5,4,3,4,4,3,4,0,6,5,6,764,
scooby_state_63f85a|6|2 497,13,98,14,13,10,19,8,7,12,11,14,14,1,31,762,
scooby_state_550ff8|52|1 761,0,0,0,0,0,0,0,0,1,0,0,0,0,0,762,
scooby_state_550ff8|48|1 755,0,0,4,0,0,1,0,0,0,0,0,0,0,0,760,
scooby_state_550ff8|58|1 756,0,0,1,0,1,0,0,0,1,1,0,0,0,0,760,
scooby_state_55b1e5|39|0 387,83,36,25,17,13,19,17,12,13,10,0,104,0,24,760,
scooby_state_4117af|10|-2 1,0,1,1,1,1,7,0,2,2,1,736,1,3,1,758,
scooby_state_550ff8|8|-17 752,0,0,4,0,0,0,1,0,0,0,0,0,0,0,757,
scooby_state_50754a|3|2 539,0,1,8,2,5,8,3,5,2,2,47,52,70,13,757,
scooby_state_4ea019|53|1 21,735,0,0,0,0,0,0,0,1,0,0,0,0,0,757,
scooby_state_54fefc|16|0 749,5,0,0,0,1,0,0,0,0,0,0,0,0,0,755,
scooby_state_54fefc|11|0 738,16,0,0,0,0,1,0,0,0,0,0,0,0,0,755,
scooby_state_4ea019|1|1 22,729,1,0,0,0,0,0,0,0,0,0,0,0,1,753,
scooby_state_444004|0|0 648,0,65,7,3,2,2,14,1,2,2,4,1,0,2,753,
scooby_state_5432c8|2|0 332,394,3,6,3,1,1,1,7,1,1,2,0,0,1,753,
scooby_state_550ff8|53|1 743,0,0,5,0,0,0,0,0,1,1,0,0,0,0,750,
scooby_state_54fefc|12|0 742,6,0,0,0,0,0,0,0,0,0,0,0,1,0,749,
scooby_state_558405|16|0 531,148,0,6,0,12,11,18,0,0,4,0,15,0,0,745,
scooby_state_47135d|63|0 734,4,1,0,1,0,1,0,2,0,0,1,0,0,1,745,
scooby_state_4ea019|34|1 24,721,0,0,0,0,0,0,0,0,0,0,0,0,0,745,
scooby_state_4117af|13|0 4,0,0,1,0,0,2,0,0,0,0,738,0,0,0,745,
scooby_state_550ff8|16|-17 732,1,0,7,0,0,0,0,0,0,0,1,0,0,4,745,
scooby_state_471394|13|0 731,0,0,2,2,0,0,0,3,0,0,2,0,0,4,744,
scooby_state_4ea019|62|1 23,720,0,0,0,0,0,0,0,0,0,0,0,1,0,744,
scooby_state_550ff8|59|1 738,0,0,2,0,2,0,1,0,0,0,0,0,0,0,743,
scooby_state_550ff8|56|1 740,0,0,2,0,0,0,0,0,0,0,0,0,0,0,742,
scooby_state_4ea019|12|1 31,708,0,0,0,0,0,0,0,0,0,0,0,0,0,739,
scooby_state_47133d|52|15 632,23,40,3,5,2,3,2,3,5,4,0,6,4,6,738,
scooby_state_54fefc|61|18 728,2,0,0,0,0,1,1,0,2,0,1,1,0,1,737,
scooby_state_550ff8|55|1 732,0,1,0,0,0,1,0,0,0,0,1,0,0,1,736,
scooby_state_550ff8|28|-17 730,0,0,0,0,0,0,2,0,1,0,1,0,0,1,735,
scooby_state_5432c8|6|0 345,373,2,2,1,1,1,2,3,0,1,2,0,0,0,733,
scooby_state_54fefc|19|18 727,1,0,0,0,0,0,0,0,1,0,0,1,0,2,732,
scooby_state_4ea019|5|1 18,710,0,0,0,0,0,0,0,0,0,1,0,0,0,729,
scooby_state_47133d|44|11 694,0,2,1,2,3,4,2,1,2,3,3,1,6,4,728,
scooby_state_443f00|60|0 677,48,0,1,0,0,0,0,0,0,0,0,0,1,0,727,
scooby_state_4ea019|59|1 22,702,1,0,1,0,0,0,0,0,0,0,0,0,0,726,
scooby_state_445142|5|0 155,24,14,26,13,14,14,16,20,13,15,97,15,266,22,724,
scooby_state_550ff8|22|-17 711,0,0,4,1,0,0,2,0,0,0,3,0,0,2,723,
scooby_state_550ff8|46|-17 714,0,0,3,0,0,0,0,0,2,0,2,0,0,0,721,
scooby_state_550ff8|29|-17 714,0,0,2,0,0,0,0,0,1,0,2,0,0,0,719,
scooby_state_550ff8|26|-17 710,0,0,3,0,0,0,0,0,0,0,2,0,0,1,716,
scooby_state_550ff8|32|-17 705,0,0,8,0,0,0,1,0,0,0,1,0,0,1,716,
scooby_state_507581|22|0 384,18,21,20,17,17,20,19,18,19,23,38,18,39,44,715,
scooby_state_471359|63|0 709,0,0,0,0,0,0,0,0,1,0,0,1,2,0,713,
scooby_state_55b6eb|4|0 680,3,0,1,2,1,2,4,3,0,2,4,6,1,3,712,
scooby_state_550ff8|18|-17 703,0,0,3,0,0,0,0,0,0,1,3,0,0,1,711,
scooby_state_550ff8|12|-17 701,0,0,4,0,0,1,0,0,0,0,2,0,0,2,710,
scooby_state_4ea019|44|1 14,694,1,0,0,0,0,0,0,0,0,0,0,0,0,709,
scooby_state_4117af|13|2 3,1,0,1,0,0,0,0,0,0,0,668,0,32,1,706,
scooby_state_4ea019|41|1 11,690,0,0,1,0,0,0,0,0,0,1,1,0,0,704,
scooby_state_550ff8|31|-17 693,0,0,6,0,1,0,1,0,0,0,2,1,0,0,704,
scooby_state_5432c8|0|0 322,356,3,7,3,0,0,0,4,1,3,0,0,1,3,703,
scooby_state_54fefc|25|18 700,2,0,0,0,0,0,0,0,0,0,1,0,0,0,703,
scooby_state_471394|4|0 693,0,1,2,0,0,0,2,0,0,1,2,1,0,0,702,
scooby_state_41cc81|2|0 85,615,0,0,0,0,0,0,0,0,0,0,1,0,0,701,
scooby_state_47135d|4|0 688,3,1,1,0,0,0,0,0,1,2,1,0,0,3,700,
scooby_state_4712af|47|0 663,3,0,1,3,1,4,3,2,4,4,1,4,0,3,696,
scooby_state_550ff8|15|-17 686,0,0,6,0,0,0,1,0,0,0,0,1,0,0,694,
scooby_state_41cc78|4|0 662,0,3,1,1,1,2,0,1,1,1,17,0,1,2,693,
scooby_state_41cc81|0|0 105,587,0,0,0,0,0,0,0,0,1,0,0,0,0,693,
scooby_state_54fefc|4|0 677,13,0,0,1,0,0,0,0,0,0,0,0,0,0,691,
scooby_state_550ff8|9|-17 680,0,0,5,0,1,0,0,0,1,0,3,0,0,1,691,
scooby_state_41cc78|3|0 658,0,3,1,2,0,1,0,0,0,1,22,1,0,1,690,
scooby_state_471394|40|0 679,1,1,1,1,1,0,0,1,3,1,1,0,0,0,690,
scooby_state_41cc81|3|0 104,585,0,0,1,0,0,0,0,0,0,0,0,0,0,690,
scooby_state_550ff8|61|1 682,0,0,4,0,0,0,1,0,0,0,0,0,0,1,688,
scooby_state_54fefc|45|18 683,1,0,0,0,1,1,0,0,0,0,0,0,1,0,687,
scooby_state_54fefc|14|0 674,10,0,0,0,1,0,0,0,0,0,0,0,0,0,685,
scooby_state_54fefc|43|18 683,2,0,0,0,0,0,0,0,0,0,0,0,0,0,685,
scooby_state_41cc81|1|0 95,588,0,0,0,0,0,0,0,0,0,1,0,0,0,684,
scooby_state_54fefc|10|0 677,4,0,0,0,0,0,1,0,0,0,0,0,0,0,682,
scooby_state_54fefc|33|18 676,1,1,0,0,0,0,0,1,1,1,0,0,1,0,682,
scooby_state_54fefc|63|18 675,2,0,1,0,0,2,1,0,0,0,0,0,0,0,681,
scooby_state_550ff8|24|-17 665,0,0,7,1,0,0,1,1,2,0,2,0,0,1,680,
scooby_state_550ff8|7|-17 672,0,1,4,0,0,0,0,0,0,0,2,0,0,1,680,
scooby_state_550ff8|38|-17 674,0,0,3,0,0,0,1,0,0,0,1,0,0,0,679,
scooby_state_5432c8|4|0 310,348,3,2,1,0,0,0,3,2,0,0,0,0,8,677,
scooby_state_54fefc|8|0 672,2,0,0,0,0,0,1,0,0,0,0,0,0,0,675,
scooby_state_54fefc|1|0 670,1,0,1,0,0,0,0,0,1,0,0,0,0,0,673,
scooby_state_550ff8|34|-17 670,0,0,2,0,0,0,0,0,0,0,0,0,0,0,672,
scooby_state_550ff8|41|-17 666,0,1,2,0,0,0,0,0,1,0,1,0,1,0,672,
scooby_state_471394|17|0 659,1,1,1,2,0,1,2,0,2,0,1,1,0,0,671,
scooby_state_550ff8|40|-17 668,0,0,1,0,1,0,1,0,0,0,0,0,0,0,671,
scooby_state_550ff8|6|-17 662,0,0,4,0,1,0,1,0,0,0,0,0,0,2,670,
scooby_state_54fefc|39|18 667,3,0,0,0,0,0,0,0,0,0,0,0,0,0,670,
scooby_state_471394|47|0 650,1,3,2,0,1,2,2,0,3,2,0,0,0,1,667,
scooby_state_53f5b0|22|0 548,0,0,7,0,14,9,12,10,15,11,0,2,10,29,667,
scooby_state_550ff8|19|-17 661,0,0,6,0,0,0,0,0,0,0,0,0,0,0,667,
scooby_state_54fefc|49|18 664,2,0,0,0,0,0,0,0,0,0,1,0,0,0,667,
scooby_state_471394|60|0 658,1,0,1,0,0,0,0,0,2,1,0,1,2,1,667,
scooby_state_550ff8|4|-17 660,0,0,2,2,0,0,0,0,1,0,1,0,0,0,666,
scooby_state_411c4a|41|0 510,0,0,1,0,2,0,0,1,1,0,15,134,0,1,665,
scooby_state_5432c8|5|0 328,310,0,4,1,0,3,0,7,0,1,4,1,2,2,663,
scooby_state_550ff8|39|-17 658,0,0,3,0,0,0,0,0,0,0,0,1,0,0,662,
scooby_state_471394|50|0 653,1,1,0,0,0,0,0,1,0,0,1,2,0,2,661,
scooby_state_410781|11|0 523,0,87,7,4,1,0,15,2,0,8,7,0,0,7,661,
scooby_state_471394|43|0 651,1,0,0,1,1,1,2,0,1,1,1,1,0,0,661,
scooby_state_471394|42|0 653,0,0,1,1,2,0,1,1,1,1,0,0,0,0,661,
scooby_state_550ff8|35|-17 650,0,0,6,0,0,0,0,0,0,0,1,0,0,2,659,
scooby_state_54fefc|35|18 657,1,0,0,0,0,0,0,0,0,0,0,0,0,0,658,
scooby_state_54fefc|46|18 653,0,0,1,0,0,0,2,0,0,1,0,0,0,0,657,
scooby_state_550ff8|5|-17 650,0,1,4,0,1,0,0,0,0,0,0,0,0,0,656,
scooby_state_55b160|5|0 351,59,77,12,15,9,17,16,13,20,12,0,28,8,18,655,
scooby_state_5432c8|7|0 305,324,2,5,4,1,1,2,4,0,0,1,1,2,0,652,
scooby_state_41cc81|5|0 118,533,0,0,0,0,0,0,0,0,0,0,0,0,0,651,
scooby_state_550ff8|10|-17 648,0,0,0,0,1,0,0,0,1,0,0,0,0,0,650,
scooby_state_550ff8|45|-17 640,0,0,7,0,0,0,1,0,0,0,2,0,0,0,650,
scooby_state_471394|20|0 639,0,1,2,0,0,2,0,0,0,2,1,2,0,0,649,
scooby_state_4ea019|17|1 22,627,0,0,0,0,0,0,0,0,0,0,0,0,0,649,
scooby_state_41cc78|55|0 617,0,1,1,0,1,1,0,0,1,0,25,0,1,1,649,
scooby_state_471394|46|0 637,1,0,3,1,0,0,1,2,1,1,1,0,0,0,648,
scooby_state_471394|28|0 638,1,1,1,0,0,0,2,1,0,0,1,1,1,0,647,
scooby_state_54fefc|3|0 639,7,0,0,0,0,0,0,0,0,0,0,0,0,1,647,
scooby_state_54fefc|29|18 641,1,0,0,1,0,0,0,0,1,0,1,1,0,0,646,
scooby_state_63f85a|61|1 416,20,1,32,17,16,10,14,13,16,15,15,17,0,44,646,
scooby_state_5432c8|1|0 319,308,4,2,1,0,2,1,2,0,0,3,0,0,3,645,
scooby_state_444028|45|4 401,11,33,16,13,15,40,14,10,12,9,0,28,18,25,645,
scooby_state_621e83|59|7 320,23,109,9,17,13,13,14,13,12,12,8,37,12,33,645,
scooby_state_54fefc|58|18 643,1,0,0,0,0,0,0,0,0,0,0,1,0,0,645,
scooby_state_550ff8|11|-17 641,0,0,1,0,0,0,0,0,0,0,2,0,0,0,644,
scooby_state_41cc4c|40|0 308,173,122,0,0,0,4,0,0,0,0,0,4,5,27,643,
scooby_state_54fefc|24|18 638,1,0,0,0,0,0,0,0,2,0,1,1,0,0,643,
scooby_state_53e1b9|40|0 60,16,43,232,0,0,1,26,0,3,0,7,1,252,2,643,
scooby_state_416eb9|7|0 468,50,7,5,18,7,8,2,5,8,7,19,3,28,7,642,
scooby_state_471394|55|0 622,1,0,1,0,1,0,4,1,0,1,3,2,1,2,639,
scooby_state_471394|33|0 626,1,3,1,1,1,1,1,0,0,2,0,1,0,1,639,
scooby_state_54fefc|32|18 632,3,0,1,0,0,1,0,0,0,0,1,0,1,0,639,
scooby_state_471394|34|0 620,1,0,4,0,0,1,4,0,0,2,3,0,2,1,638,
scooby_state_41cc81|12|0 72,565,0,0,0,0,0,0,0,0,0,0,0,0,1,638,
scooby_state_54fefc|22|18 629,3,1,0,1,1,0,0,0,1,0,1,0,0,0,637,
scooby_state_471394|23|0 629,1,0,1,0,0,0,0,1,0,0,2,1,1,1,637,
scooby_state_556420|16|0 531,0,31,8,4,7,8,8,5,7,4,3,0,6,13,635,
scooby_state_55bb00|44|0 1,1,0,0,0,0,1,0,0,0,0,631,0,0,0,634,
scooby_state_471394|44|0 620,1,2,0,2,0,0,2,1,0,1,1,1,1,2,634,
scooby_state_471359|46|-1 618,1,1,0,1,2,0,0,1,2,2,1,2,1,1,633,
scooby_state_545140|5|0 1,2,67,5,2,2,517,3,3,3,3,0,20,1,3,632,
scooby_state_471394|53|0 625,0,0,1,0,0,0,3,0,0,0,1,0,1,1,632,
scooby_state_550ff8|37|-17 626,0,0,3,0,1,0,0,0,0,0,2,0,0,0,632,
scooby_state_41cc81|40|0 74,556,0,1,0,0,0,0,0,0,0,0,0,0,0,631,
scooby_state_5501c2|7|1 606,0,19,0,0,0,0,1,0,0,0,4,0,0,0,630,
scooby_state_50754a|1|-7 340,0,0,2,15,6,4,5,8,2,5,93,0,141,8,629,
scooby_state_471394|7|0 619,3,0,2,0,0,0,2,0,0,0,0,1,0,2,629,
scooby_state_550ff8|1|-17 625,0,0,2,0,1,0,0,0,0,0,0,1,0,0,629,
scooby_state_54fefc|36|18 626,2,0,0,0,0,0,0,0,1,0,0,0,0,0,629,
scooby_state_471394|59|0 623,1,1,1,1,0,0,0,0,2,0,0,0,0,0,629,
scooby_state_471394|36|0 619,1,0,0,1,2,0,1,2,0,0,1,1,0,0,628,
scooby_state_54fefc|26|18 620,3,1,0,0,0,0,0,2,0,0,0,0,1,0,627,
scooby_state_550ff8|17|-17 617,0,0,5,0,0,0,0,0,0,0,3,0,0,2,627,
scooby_state_54fefc|57|18 622,2,0,0,0,0,0,1,0,1,0,0,0,0,0,626,
scooby_state_4441eb|42|0 2,521,5,29,4,6,10,5,4,8,4,0,4,7,17,626,
scooby_state_54fefc|55|18 623,1,0,1,0,0,0,0,0,0,0,0,0,0,1,626,
scooby_state_41cc81|24|0 96,528,0,0,0,1,0,0,0,0,0,0,0,0,0,625,
scooby_state_41cc81|31|0 85,539,1,0,0,0,0,0,0,0,0,0,0,0,0,625,
scooby_state_471394|0|0 618,0,1,2,2,0,0,0,0,1,1,0,0,0,0,625,
scooby_state_54fefc|48|18 622,1,0,0,0,1,0,0,0,0,0,0,0,0,1,625,
scooby_state_54fefc|51|18 622,3,0,0,0,0,0,0,0,0,0,0,0,0,0,625,
scooby_state_471359|3|-1 612,2,2,0,1,1,0,2,1,1,0,1,1,0,1,625,
scooby_state_41cc78|17|0 594,0,3,1,0,0,2,0,0,0,0,24,0,0,0,624,
scooby_state_471394|54|0 620,0,0,0,0,0,0,0,1,1,0,0,2,0,0,624,
scooby_state_41cc81|14|0 85,536,0,0,0,0,0,0,0,0,0,1,1,0,0,623,
scooby_state_41cc78|30|0 590,1,3,0,1,0,1,0,0,0,0,26,0,1,0,623,
scooby_state_471394|26|0 614,1,0,0,1,2,2,0,0,0,1,0,0,1,0,622,
scooby_state_41cc78|16|0 588,1,5,1,0,0,2,0,0,0,0,23,1,0,1,622,
scooby_state_5432c8|3|0 266,334,2,2,6,1,0,0,6,1,0,0,1,2,1,622,
scooby_state_55548c|18|2 400,25,1,17,17,15,14,13,21,13,15,18,5,26,22,622,
scooby_state_41cc81|43|0 75,545,0,0,0,0,0,0,0,0,0,1,0,0,0,621,
scooby_state_550ff8|33|-17 615,1,0,0,1,2,0,0,0,0,0,2,0,0,0,621,
scooby_state_555400|16|0 223,72,1,13,0,11,2,11,4,12,5,258,0,0,9,621,
scooby_state_41cc78|56|0 580,0,7,0,1,0,1,0,1,1,0,27,1,0,1,620,
scooby_state_471394|56|0 608,0,1,2,0,1,0,3,0,0,1,1,1,1,1,620,
scooby_state_4712af|25|0 614,0,0,1,0,0,1,0,1,2,0,0,0,1,0,620,
scooby_state_550ff8|21|-17 611,0,0,5,1,0,0,0,0,1,0,0,0,0,1,619,
scooby_state_54fefc|23|18 614,3,0,0,1,0,0,0,0,0,0,0,0,0,0,618,
scooby_state_54fefc|41|18 614,2,0,0,0,0,0,0,0,0,0,0,0,0,1,617,
scooby_state_41cc78|43|0 586,1,6,0,0,1,0,0,1,0,1,18,0,3,0,617,
scooby_state_55b6fe|25|0 143,4,0,1,2,1,1,1,0,0,1,0,1,459,2,616,
scooby_state_5432c8|8|0 275,323,0,2,4,1,1,0,4,1,1,1,1,0,2,616,
scooby_state_550ff8|30|-17 612,0,0,2,0,0,0,0,0,1,1,0,0,0,0,616,
scooby_state_471394|27|0 605,0,0,0,1,1,0,2,2,1,0,0,3,1,0,616,
scooby_state_471394|30|0 608,2,0,0,0,0,0,1,0,1,0,1,1,1,0,615,
scooby_state_5555a4|22|4 162,0,0,0,0,1,2,2,0,2,1,439,4,0,2,615,
scooby_state_41cc81|7|0 82,531,1,0,0,0,0,0,0,0,0,1,0,0,0,615,
scooby_state_550ff8|50|1 610,0,0,2,1,1,0,0,0,0,0,0,0,0,0,614,
scooby_state_4712af|4|0 598,1,0,2,0,1,0,1,1,1,1,1,3,0,3,613,
scooby_state_54fefc|21|18 611,1,0,0,0,0,0,0,0,0,0,0,0,0,1,613,
scooby_state_55b6eb|47|22 484,0,20,5,5,13,18,11,9,9,13,0,2,0,23,612,
scooby_state_41cc81|25|0 75,537,0,0,0,0,0,0,0,0,0,0,0,0,0,612,
scooby_state_54fefc|56|18 604,6,1,0,0,0,0,0,0,0,0,0,1,0,0,612,
scooby_state_4ebac0|43|0 556,0,11,7,17,4,7,0,0,1,1,0,5,0,3,612,
scooby_state_47135d|26|0 596,4,1,1,1,0,1,1,1,1,0,2,2,0,1,612,
scooby_state_550ff8|43|-17 602,1,0,3,0,0,0,2,0,1,0,3,0,0,0,612,
scooby_state_550ff8|3|-17 606,0,0,3,0,0,0,0,0,1,0,2,0,0,0,612,
scooby_state_41cc81|6|0 83,527,0,0,0,0,1,0,0,0,0,0,0,0,0,611,
scooby_state_471394|51|0 602,2,0,0,0,0,1,1,2,1,1,0,1,0,0,611,
scooby_state_550ff8|27|-17 607,0,0,1,0,0,0,0,0,0,0,1,0,0,0,609,
scooby_state_41cc81|18|0 92,516,0,0,0,0,0,0,0,0,0,0,0,0,0,608,
scooby_state_41cc81|30|0 93,515,0,0,0,0,0,0,0,0,0,0,0,0,0,608,
scooby_state_54fefc|52|18 604,2,0,0,0,0,0,0,1,0,0,0,0,0,0,607,
scooby_state_554ac0|43|0 1,0,0,0,1,0,0,1,3,1,0,597,0,1,1,606,
scooby_state_471394|57|0 598,0,2,1,0,2,1,1,0,0,0,0,0,1,0,606,
scooby_state_471394|63|0 598,0,0,1,0,1,1,2,0,0,0,1,2,0,0,606,
scooby_state_471394|6|0 598,0,0,2,0,0,0,0,0,1,1,0,0,1,2,605,
scooby_state_54fefc|18|18 604,0,0,0,0,0,0,0,0,0,0,0,0,0,1,605,
scooby_state_471394|35|0 601,0,0,0,0,0,0,0,1,1,1,0,0,0,1,605,
scooby_state_41cc81|41|0 93,511,1,0,0,0,0,0,0,0,0,0,0,0,0,605,
scooby_state_54fefc|62|18 600,3,0,0,1,0,0,0,0,0,1,0,0,0,0,605,
scooby_state_621435|16|0 573,8,0,0,2,2,2,3,0,1,2,1,4,2,4,604,
scooby_state_550ff8|36|-17 594,0,0,9,0,0,0,0,0,0,0,0,0,0,0,603,
scooby_state_41cc81|15|0 79,523,0,0,0,0,0,0,1,0,0,0,0,0,0,603,
scooby_state_550075|18|0 94,56,13,43,2,1,3,1,296,1,0,17,16,1,59,603,
scooby_state_41cc81|11|0 71,532,0,0,0,0,0,0,0,0,0,0,0,0,0,603,
scooby_state_4117af|9|-3 1,0,0,0,0,1,0,0,0,0,0,578,1,21,0,602,
scooby_state_411b0d|41|0 568,5,1,3,1,2,1,5,1,5,1,2,2,1,4,602,
scooby_state_54fefc|27|18 599,0,0,0,0,0,0,0,1,1,0,0,0,1,0,602,
scooby_state_471394|29|0 592,0,1,2,1,0,0,1,1,1,0,0,1,1,1,602,
scooby_state_41cc81|22|0 74,526,0,0,0,0,0,0,0,0,0,0,1,0,0,601,
scooby_state_550ff8|13|-17 592,0,1,5,0,1,0,1,0,0,0,0,0,0,0,600,
scooby_state_471394|10|0 594,0,0,0,0,0,1,0,0,1,0,1,1,1,0,599,
scooby_state_41cc81|27|0 77,520,0,1,0,0,0,0,0,0,1,0,0,0,0,599,
scooby_state_556495|18|2 433,4,14,5,4,17,20,15,8,19,11,0,2,0,46,598,
scooby_state_54fff8|3|-14 1,0,0,1,7,4,1,509,1,5,3,0,7,52,7,598,
scooby_state_54fefc|34|18 596,0,0,0,1,0,0,0,0,0,0,0,0,0,0,597,
scooby_state_411c4a|63|0 437,0,1,0,0,0,1,1,0,0,2,12,139,0,3,596,
scooby_state_471394|39|0 588,2,0,1,0,0,0,0,1,2,0,0,0,1,1,596,
scooby_state_506f34|0|-54 490,0,17,16,3,9,8,8,4,7,9,0,10,3,12,596,
scooby_state_444197|56|0 459,8,46,5,9,4,5,5,4,5,4,18,9,5,10,596,
scooby_state_471394|1|0 587,0,0,1,0,0,1,2,0,0,0,1,1,1,1,595,
scooby_state_550ff8|23|-17 589,0,0,2,0,2,0,0,0,0,0,1,0,0,1,595,
scooby_state_471394|19|0 584,1,2,0,1,2,1,0,1,0,0,1,1,0,1,595,
scooby_state_471394|31|0 586,0,0,0,0,3,1,1,0,1,0,0,0,2,0,594,
scooby_state_41cc81|45|0 85,507,0,0,0,1,0,0,0,0,0,0,0,0,0,593,
scooby_state_552182|6|1 572,1,1,1,0,4,11,0,0,1,1,0,1,0,0,593,
scooby_state_41cc78|41|0 564,0,3,0,2,0,1,0,0,0,1,17,1,1,1,591,
scooby_state_41cc81|13|0 65,525,0,0,0,1,0,0,0,0,0,0,0,0,0,591,
scooby_state_471394|48|0 578,2,0,1,0,2,0,3,0,0,0,3,0,1,1,591,
scooby_state_41cc81|28|0 78,510,0,0,2,0,0,0,0,0,0,0,0,0,0,590,
scooby_state_544acf|43|0 93,365,61,0,0,10,10,6,1,6,7,11,8,0,12,590,
scooby_state_55214d|12|2 2,0,0,1,0,0,0,0,0,1,1,584,0,0,1,590,
scooby_state_4712af|40|0 554,4,2,1,3,2,3,1,1,1,3,4,3,4,4,590,
scooby_state_41cc81|34|0 75,512,0,0,0,0,1,0,0,0,0,0,0,0,0,588,
scooby_state_4712af|26|0 568,1,1,0,1,1,6,0,0,0,0,1,3,0,5,587,
scooby_state_41cc81|62|0 66,518,0,0,0,0,0,0,0,0,2,0,0,0,0,586,
scooby_state_471394|2|0 572,0,2,3,1,2,1,0,1,0,0,1,1,0,1,585,
scooby_state_41cc78|5|0 547,1,3,0,0,0,0,0,3,1,1,25,1,0,3,585,
scooby_state_471394|32|0 574,0,0,1,0,0,0,1,1,2,0,3,0,1,1,584,
scooby_state_550ff8|0|-17 578,1,0,3,0,0,0,0,0,0,0,1,0,0,1,584,
scooby_state_41cc81|52|0 65,514,0,0,1,1,1,0,0,0,0,0,0,0,0,582,
scooby_state_62919a|1|-9 82,359,0,5,0,1,1,0,0,0,0,132,0,1,0,581,
scooby_state_416ef9|2|0 580,1,0,0,0,0,0,0,0,0,0,0,0,0,0,581,
scooby_state_54fefc|28|18 573,4,0,1,1,0,0,0,0,0,0,1,0,0,0,580,
scooby_state_4ebb04|44|1 127,0,363,1,84,0,0,0,0,0,1,0,1,0,1,578,
scooby_state_555b04|44|1 181,46,130,20,3,33,35,18,13,14,15,15,0,1,54,578,
scooby_state_550ff8|20|-17 570,0,0,7,0,0,0,0,0,0,0,0,0,0,0,577,
scooby_state_411b0d|63|0 544,4,3,5,2,0,1,2,2,0,2,0,6,3,3,577,
scooby_state_54fefc|44|18 574,1,0,0,1,0,0,0,0,0,0,0,0,0,0,576,
scooby_state_54fefc|54|18 574,0,0,0,0,0,0,0,0,0,1,0,0,1,0,576,
scooby_state_471394|12|0 566,1,2,1,3,0,1,0,0,0,1,1,0,0,0,576,
scooby_state_54fefc|50|18 568,4,0,1,0,0,0,0,1,1,0,0,0,0,0,575,
scooby_state_471394|24|0 566,1,0,1,0,1,1,3,1,0,0,0,0,1,0,575,
scooby_state_629170|5|0 448,9,0,0,7,4,2,1,44,2,1,2,1,12,41,574,
scooby_state_4ebaf4|19|0 334,122,0,0,0,6,8,6,0,10,7,3,9,65,4,574,
scooby_state_41cc78|42|0 542,1,3,1,1,1,2,0,0,1,1,18,0,1,1,573,
scooby_state_54fefc|20|18 570,2,0,0,0,0,1,0,0,0,0,0,0,0,0,573,
scooby_state_471394|38|0 566,0,0,0,0,2,1,1,0,0,1,1,1,0,0,573,
scooby_state_41cc81|48|0 89,482,0,0,0,0,0,0,0,0,1,0,0,0,0,572,
scooby_state_41cc81|26|0 71,500,0,0,0,0,1,0,0,0,0,0,0,0,0,572,
scooby_state_471394|14|0 561,0,0,2,0,0,1,1,1,1,1,1,0,1,1,571,
scooby_state_471394|11|0 560,0,0,1,0,1,1,1,0,0,1,1,4,0,1,571,
scooby_state_54fff8|3|0 0,1,0,0,5,0,4,502,3,4,3,0,1,42,6,571,
scooby_state_411c5f|61|-2 414,114,0,3,2,2,1,2,1,1,4,2,1,18,6,571,
scooby_state_41cc81|50|0 74,495,0,0,0,0,0,0,0,0,1,0,0,0,0,570,
scooby_state_54fefc|60|18 564,3,0,0,0,0,0,0,1,1,1,0,0,0,0,570,
scooby_state_41cc81|42|0 98,469,0,1,1,0,0,1,0,0,0,0,0,0,0,570,
scooby_state_41cc78|28|0 532,0,4,0,0,1,0,0,2,0,0,28,1,0,1,569,
scooby_state_471394|3|0 558,1,2,2,1,0,1,1,0,0,0,0,0,0,1,567,
scooby_state_41cc81|16|0 68,499,0,0,0,0,0,0,0,0,0,0,0,0,0,567,
scooby_state_471394|49|0 562,0,0,1,0,1,0,0,0,0,2,1,0,0,0,567,
scooby_state_471394|52|0 557,1,1,2,0,0,1,0,0,0,1,0,1,0,2,566,
scooby_state_471394|25|0 554,0,1,0,2,0,1,0,0,2,0,2,1,2,0,565,
scooby_state_5432c8|12|0 263,284,3,2,2,1,0,0,5,1,1,0,1,1,1,565,
scooby_state_471394|8|0 553,1,1,0,0,0,0,1,1,1,1,1,0,5,0,565,
scooby_state_471359|25|-1 555,0,1,0,0,2,3,1,1,0,0,0,0,1,0,564,
scooby_state_544907|11|2 1,0,0,11,1,0,0,10,0,2,0,0,538,0,0,563,
scooby_state_544914|19|0 121,1,19,20,31,28,23,30,24,27,31,107,48,0,52,562,
scooby_state_54fe9b|2|2 561,0,0,0,0,0,0,0,0,0,0,1,0,0,0,562,
scooby_state_41cc78|18|0 535,1,4,1,0,0,0,0,1,0,0,16,0,1,2,561,
scooby_state_5521c1|7|1 425,0,0,1,32,0,0,0,0,0,0,102,1,0,0,561,
scooby_state_471394|16|0 550,0,0,2,0,0,1,2,1,1,0,2,0,0,2,561,
scooby_state_54fefc|30|18 556,2,1,0,0,1,0,0,0,0,0,0,0,0,1,561,
scooby_state_41cc81|49|0 77,481,0,1,0,0,0,0,0,0,0,0,0,0,1,560,
scooby_state_47133d|62|52 495,0,0,2,0,1,1,0,1,1,1,46,9,1,0,558,
scooby_state_41cc81|36|0 71,485,0,0,0,0,0,0,0,1,0,0,0,0,0,557,
scooby_state_5432c8|10|0 261,284,1,1,0,0,0,0,4,0,0,1,0,0,4,556,
[...]
scooby_state_4168ba|55|30 0,0,0,0,0,0,0,0,0,0,0,1,0,0,0,1,
scooby_state_41cc78|18|11 1,0,0,0,0,0,0,0,0,0,0,0,0,0,0,1,
scooby_state_556281|10|1 1,0,0,0,0,0,0,0,0,0,0,0,0,0,0,1,
scooby_state_620b09|55|0 0,1,0,0,0,0,0,0,0,0,0,0,0,0,0,1,
scooby_state_54523b|8|2 1,0,0,0,0,0,0,0,0,0,0,0,0,0,0,1,
scooby_state_550ff8|58|33 1,0,0,0,0,0,0,0,0,0,0,0,0,0,0,1,
scooby_state_54c983|38|1 1,0,0,0,0,0,0,0,0,0,0,0,0,0,0,1,
scooby_state_4340f0|45|-18 1,0,0,0,0,0,0,0,0,0,0,0,0,0,0,1,
scooby_state_620980|38|1 1,0,0,0,0,0,0,0,0,0,0,0,0,0,0,1,
scooby_state_550680|26|1 1,0,0,0,0,0,0,0,0,0,0,0,0,0,0,1,
scooby_state_5124e1|26|7 0,1,0,0,0,0,0,0,0,0,0,0,0,0,0,1,
scooby_state_47e5d4|16|-5 1,0,0,0,0,0,0,0,0,0,0,0,0,0,0,1,
scooby_state_4c2770|29|0 1,0,0,0,0,0,0,0,0,0,0,0,0,0,0,1,
scooby_state_444216|52|16 0,0,0,0,0,0,0,0,0,0,0,1,0,0,0,1,
scooby_state_5124e1|61|39 0,1,0,0,0,0,0,0,0,0,0,0,0,0,0,1,
scooby_state_416ef9|39|16 1,0,0,0,0,0,0,0,0,0,0,0,0,0,0,1,
scooby_state_4712ab|24|-24 0,1,0,0,0,0,0,0,0,0,0,0,0,0,0,1,
scooby_state_444216|46|-12 0,0,0,0,1,0,0,0,0,0,0,0,0,0,0,1,
scooby_state_41d1f4|38|35 0,0,1,0,0,0,0,0,0,0,0,0,0,0,0,1,
scooby_state_621db0|54|0 1,0,0,0,0,0,0,0,0,0,0,0,0,0,0,1,
scooby_state_4713b5|5|0 1,0,0,0,0,0,0,0,0,0,0,0,0,0,0,1,
scooby_state_471351|20|-37 1,0,0,0,0,0,0,0,0,0,0,0,0,0,0,1,
scooby_state_471386|14|1 1,0,0,0,0,0,0,0,0,0,0,0,0,0,0,1,
scooby_state_416eb6|12|-38 1,0,0,0,0,0,0,0,0,0,0,0,0,0,0,1,
scooby_state_54ca83|42|1 0,1,0,0,0,0,0,0,0,0,0,0,0,0,0,1,
scooby_state_4713d0|15|4 1,0,0,0,0,0,0,0,0,0,0,0,0,0,0,1,
scooby_state_41054e|57|0 1,0,0,0,0,0,0,0,0,0,0,0,0,0,0,1,
scooby_state_5432c8|33|22 0,0,0,0,0,0,0,0,0,0,0,0,1,0,0,1,
scooby_state_4168ba|32|0 0,0,0,0,0,0,0,0,0,0,0,1,0,0,0,1,
scooby_state_411a80|42|-6 1,0,0,0,0,0,0,0,0,0,0,0,0,0,0,1,
scooby_state_411bc1|47|1 1,0,0,0,0,0,0,0,0,0,0,0,0,0,0,1,
scooby_state_444216|59|24 1,0,0,0,0,0,0,0,0,0,0,0,0,0,0,1,
scooby_state_4168cb|6|-21 1,0,0,0,0,0,0,0,0,0,0,0,0,0,0,1,
scooby_state_43ad00|52|0 1,0,0,0,0,0,0,0,0,0,0,0,0,0,0,1,
scooby_state_41cc78|6|-49 1,0,0,0,0,0,0,0,0,0,0,0,0,0,0,1,
scooby_state_410748|29|1 1,0,0,0,0,0,0,0,0,0,0,0,0,0,0,1,
scooby_state_400670|25|0 1,0,0,0,0,0,0,0,0,0,0,0,0,0,0,1,
scooby_state_444216|32|-12 0,0,0,0,1,0,0,0,0,0,0,0,0,0,0,1,
scooby_state_4712ab|41|-18 0,0,1,0,0,0,0,0,0,0,0,0,0,0,0,1,
scooby_state_41cc81|14|-2 0,1,0,0,0,0,0,0,0,0,0,0,0,0,0,1,
scooby_state_41054e|50|-3 1,0,0,0,0,0,0,0,0,0,0,0,0,0,0,1,
scooby_state_54515b|44|-9 0,1,0,0,0,0,0,0,0,0,0,0,0,0,0,1,
scooby_state_47d453|57|37 1,0,0,0,0,0,0,0,0,0,0,0,0,0,0,1,
scooby_state_5125e7|25|18 1,0,0,0,0,0,0,0,0,0,0,0,0,0,0,1,
scooby_state_47d5bd|63|28 1,0,0,0,0,0,0,0,0,0,0,0,0,0,0,1,
scooby_state_5124e1|28|8 0,1,0,0,0,0,0,0,0,0,0,0,0,0,0,1,
scooby_state_4168ba|31|8 0,0,0,0,0,0,0,0,0,0,0,1,0,0,0,1,
scooby_state_47135d|40|-2 0,0,0,1,0,0,0,0,0,0,0,0,0,0,0,1,
scooby_state_47d5bd|21|2 1,0,0,0,0,0,0,0,0,0,0,0,0,0,0,1,
scooby_state_620901|36|1 1,0,0,0,0,0,0,0,0,0,0,0,0,0,0,1,
scooby_state_444020|55|5 0,0,0,0,0,0,0,0,0,0,0,1,0,0,0,1,
scooby_state_550165|59|0 1,0,0,0,0,0,0,0,0,0,0,0,0,0,0,1,
scooby_state_549100|52|1 1,0,0,0,0,0,0,0,0,0,0,0,0,0,0,1,
scooby_state_55039d|23|23 1,0,0,0,0,0,0,0,0,0,0,0,0,0,0,1,
scooby_state_416ef9|28|26 1,0,0,0,0,0,0,0,0,0,0,0,0,0,0,1,
scooby_state_4712ab|58|8 0,0,0,1,0,0,0,0,0,0,0,0,0,0,0,1,
scooby_state_555504|33|1 1,0,0,0,0,0,0,0,0,0,0,0,0,0,0,1,
scooby_state_43b8f6|25|-7 1,0,0,0,0,0,0,0,0,0,0,0,0,0,0,1,
scooby_state_5125d8|55|-1 1,0,0,0,0,0,0,0,0,0,0,0,0,0,0,1,
scooby_state_4712ab|63|9 0,0,0,0,0,0,0,0,0,0,0,1,0,0,0,1,
scooby_state_41193a|29|-9 0,0,1,0,0,0,0,0,0,0,0,0,0,0,0,1,
scooby_state_5124e1|62|32 0,1,0,0,0,0,0,0,0,0,0,0,0,0,0,1,
scooby_state_550bba|22|0 1,0,0,0,0,0,0,0,0,0,0,0,0,0,0,1,
scooby_state_556fd9|41|2 0,0,1,0,0,0,0,0,0,0,0,0,0,0,0,1,
scooby_state_4168b4|36|25 0,0,0,0,0,0,0,0,0,0,0,0,0,0,1,1,
scooby_state_416ef9|13|-13 1,0,0,0,0,0,0,0,0,0,0,0,0,0,0,1,
scooby_state_411780|56|-2 1,0,0,0,0,0,0,0,0,0,0,0,0,0,0,1,
scooby_state_5482d0|11|0 1,0,0,0,0,0,0,0,0,0,0,0,0,0,0,1,
scooby_state_622407|16|15 1,0,0,0,0,0,0,0,0,0,0,0,0,0,0,1,
scooby_state_5583d5|16|9 0,0,0,0,0,0,0,0,0,0,0,1,0,0,0,1,
scooby_state_444216|21|1 1,0,0,0,0,0,0,0,0,0,0,0,0,0,0,1,
scooby_state_41191a|14|-39 1,0,0,0,0,0,0,0,0,0,0,0,0,0,0,1,
scooby_state_5124e1|6|-33 0,1,0,0,0,0,0,0,0,0,0,0,0,0,0,1,
scooby_state_501cbe|30|1 0,0,0,0,0,0,0,0,0,0,0,0,0,0,1,1,
scooby_state_41d181|6|1 1,0,0,0,0,0,0,0,0,0,0,0,0,0,0,1,
scooby_state_443ff4|51|2 0,0,0,0,0,0,0,0,0,0,0,1,0,0,0,1,
scooby_state_471349|58|6 0,0,0,0,0,0,0,0,1,0,0,0,0,0,0,1,
scooby_state_620aa5|15|-21 0,0,0,0,0,0,0,0,0,0,0,0,1,0,0,1,
scooby_state_53f800|32|13 1,0,0,0,0,0,0,0,0,0,0,0,0,0,0,1,
scooby_state_444020|10|-50 0,0,0,0,0,0,0,0,0,0,0,0,0,1,0,1,
scooby_state_620b09|21|0 0,0,0,0,0,0,0,0,0,0,0,0,0,1,0,1,
scooby_state_4712ab|32|23 0,0,0,0,0,0,0,0,0,0,0,0,1,0,0,1,
scooby_state_55bb37|14|7 0,0,0,0,0,0,0,0,0,0,0,0,1,0,0,1,
scooby_state_43b89a|43|39 1,0,0,0,0,0,0,0,0,0,0,0,0,0,0,1,
scooby_state_54c9c2|39|1 1,0,0,0,0,0,0,0,0,0,0,0,0,0,0,1,
scooby_state_5557fd|32|0 1,0,0,0,0,0,0,0,0,0,0,0,0,0,0,1,
scooby_state_55bb13|15|-2 0,0,0,0,0,0,0,0,0,0,0,1,0,0,0,1,
scooby_state_54fe9b|19|7 1,0,0,0,0,0,0,0,0,0,0,0,0,0,0,1,
scooby_state_620901|26|-1 0,1,0,0,0,0,0,0,0,0,0,0,0,0,0,1,
scooby_state_41cc78|58|37 0,0,0,0,0,0,0,0,0,0,0,1,0,0,0,1,
scooby_state_416eb3|53|52 0,0,0,0,0,0,0,0,0,0,0,1,0,0,0,1,
scooby_state_41191a|17|-44 0,1,0,0,0,0,0,0,0,0,0,0,0,0,0,1,
scooby_state_416eb3|46|3 0,0,0,0,0,0,0,0,0,0,0,1,0,0,0,1,
scooby_state_51a802|32|1 0,0,0,0,0,0,0,0,0,0,0,1,0,0,0,1,
scooby_state_47d453|54|39 1,0,0,0,0,0,0,0,0,0,0,0,0,0,0,1,
scooby_state_41191a|15|1 0,0,0,0,0,0,0,0,0,0,0,1,0,0,0,1,
scooby_state_55578c|30|2 1,0,0,0,0,0,0,0,0,0,0,0,0,0,0,1,
scooby_state_4712ab|25|-14 0,0,0,0,0,0,0,0,0,0,0,0,0,1,0,1,
scooby_state_4168ba|15|4 0,0,0,0,0,0,0,0,0,0,0,1,0,0,0,1,
scooby_state_416eb3|39|24 0,0,0,0,0,0,0,0,0,0,0,1,0,0,0,1,
scooby_state_4441ae|42|2 1,0,0,0,0,0,0,0,0,0,0,0,0,0,0,1,
scooby_state_620aeb|22|2 1,0,0,0,0,0,0,0,0,0,0,0,0,0,0,1,
scooby_state_620b43|45|1 1,0,0,0,0,0,0,0,0,0,0,0,0,0,0,1,
scooby_state_41054e|0|-49 0,0,0,0,0,0,0,0,0,0,0,1,0,0,0,1,
scooby_state_444216|46|37 1,0,0,0,0,0,0,0,0,0,0,0,0,0,0,1,
scooby_state_41191a|17|3 1,0,0,0,0,0,0,0,0,0,0,0,0,0,0,1,
scooby_state_41cc78|45|36 0,0,0,0,0,0,0,0,0,0,1,0,0,0,0,1,
scooby_state_550e13|56|1 1,0,0,0,0,0,0,0,0,0,0,0,0,0,0,1,
scooby_state_550ff8|57|56 1,0,0,0,0,0,0,0,0,0,0,0,0,0,0,1,
scooby_state_4712ab|51|40 0,0,0,0,0,0,0,0,0,0,0,1,0,0,0,1,
scooby_state_551144|5|1 1,0,0,0,0,0,0,0,0,0,0,0,0,0,0,1,
scooby_state_444186|42|31 0,0,0,0,0,0,0,0,0,0,0,0,1,0,0,1,
scooby_state_54c9b1|55|2 0,0,1,0,0,0,0,0,0,0,0,0,0,0,0,1,
scooby_state_41054e|8|-3 0,0,0,0,0,0,0,0,0,0,0,1,0,0,0,1,
scooby_state_552182|12|4 1,0,0,0,0,0,0,0,0,0,0,0,0,0,0,1,
scooby_state_41cc78|32|-12 1,0,0,0,0,0,0,0,0,0,0,0,0,0,0,1,
scooby_state_4168b4|47|5 0,0,1,0,0,0,0,0,0,0,0,0,0,0,0,1,
scooby_state_555968|37|5 1,0,0,0,0,0,0,0,0,0,0,0,0,0,0,1,
scooby_state_411c3e|33|0 0,0,0,0,0,0,0,0,0,0,0,0,0,1,0,1,
scooby_state_41cc81|56|50 0,1,0,0,0,0,0,0,0,0,0,0,0,0,0,1,
scooby_state_550629|55|0 0,1,0,0,0,0,0,0,0,0,0,0,0,0,0,1,
scooby_state_507571|51|-12 0,0,0,0,0,0,0,0,0,0,0,0,1,0,0,1,
scooby_state_552182|42|0 1,0,0,0,0,0,0,0,0,0,0,0,0,0,0,1,
scooby_state_550849|33|1 1,0,0,0,0,0,0,0,0,0,0,0,0,0,0,1,
scooby_state_4450fb|51|-4 0,0,0,0,1,0,0,0,0,0,0,0,0,0,0,1,
scooby_state_621e02|56|-3 1,0,0,0,0,0,0,0,0,0,0,0,0,0,0,1,
scooby_state_47d600|24|1 1,0,0,0,0,0,0,0,0,0,0,0,0,0,0,1,
scooby_state_444216|42|33 0,1,0,0,0,0,0,0,0,0,0,0,0,0,0,1,
scooby_state_4105f0|23|0 1,0,0,0,0,0,0,0,0,0,0,0,0,0,0,1,
scooby_state_620af7|30|-6 0,0,0,0,0,0,1,0,0,0,0,0,0,0,0,1,
scooby_state_410737|49|1 0,0,0,0,0,0,0,0,0,0,0,0,1,0,0,1,
scooby_state_47e5d4|52|-5 1,0,0,0,0,0,0,0,0,0,0,0,0,0,0,1,
scooby_state_4340f0|25|-14 1,0,0,0,0,0,0,0,0,0,0,0,0,0,0,1,
scooby_state_53e1c0|7|1 1,0,0,0,0,0,0,0,0,0,0,0,0,0,0,1,
scooby_state_444186|12|6 0,1,0,0,0,0,0,0,0,0,0,0,0,0,0,1,
scooby_state_507571|35|-3 0,0,0,0,0,0,0,0,0,0,0,0,1,0,0,1,
scooby_state_41cc78|61|49 0,0,1,0,0,0,0,0,0,0,0,0,0,0,0,1,
scooby_state_4712ab|12|-31 1,0,0,0,0,0,0,0,0,0,0,0,0,0,0,1,
scooby_state_444186|25|13 0,0,0,0,0,0,0,0,1,0,0,0,0,0,0,1,
scooby_state_53f530|20|-12 1,0,0,0,0,0,0,0,0,0,0,0,0,0,0,1,
scooby_state_624599|42|21 0,0,1,0,0,0,0,0,0,0,0,0,0,0,0,1,
scooby_state_471441|17|3 1,0,0,0,0,0,0,0,0,0,0,0,0,0,0,1,
scooby_state_5549a0|38|0 1,0,0,0,0,0,0,0,0,0,0,0,0,0,0,1,
scooby_state_55bb13|54|26 0,0,0,0,0,0,0,1,0,0,0,0,0,0,0,1,
scooby_state_5124d0|19|-4 1,0,0,0,0,0,0,0,0,0,0,0,0,0,0,1,
scooby_state_55ba00|40|1 0,0,0,0,0,0,0,0,0,0,0,1,0,0,0,1,
scooby_state_5583d5|39|1 0,0,0,0,0,0,0,1,0,0,0,0,0,0,0,1,
scooby_state_444216|30|2 0,0,0,0,0,0,0,0,0,0,0,0,0,0,1,1,
scooby_state_44415f|15|-30 0,0,0,0,0,0,0,0,0,0,0,0,1,0,0,1,
scooby_state_471394|50|1 1,0,0,0,0,0,0,0,0,0,0,0,0,0,0,1,
scooby_state_621e17|35|28 0,0,0,0,0,0,0,0,0,0,0,1,0,0,0,1,
scooby_state_444216|23|-6 0,0,0,0,0,0,0,0,0,0,0,1,0,0,0,1,
scooby_state_47d453|57|5 1,0,0,0,0,0,0,0,0,0,0,0,0,0,0,1,
scooby_state_41d206|8|-10 1,0,0,0,0,0,0,0,0,0,0,0,0,0,0,1,
scooby_state_4168b4|32|-17 0,0,1,0,0,0,0,0,0,0,0,0,0,0,0,1,
scooby_state_55b176|30|-4 0,0,0,0,1,0,0,0,0,0,0,0,0,0,0,1,
scooby_state_5433f9|15|4 1,0,0,0,0,0,0,0,0,0,0,0,0,0,0,1,
scooby_state_4712ab|11|-21 1,0,0,0,0,0,0,0,0,0,0,0,0,0,0,1,
scooby_state_555dc1|55|1 1,0,0,0,0,0,0,0,0,0,0,0,0,0,0,1,
scooby_state_552182|7|0 1,0,0,0,0,0,0,0,0,0,0,0,0,0,0,1,
scooby_state_5524d8|27|23 0,1,0,0,0,0,0,0,0,0,0,0,0,0,0,1,
scooby_state_54fefc|23|21 1,0,0,0,0,0,0,0,0,0,0,0,0,0,0,1,
scooby_state_4441ae|25|3 1,0,0,0,0,0,0,0,0,0,0,0,0,0,0,1,
scooby_state_63f883|34|1 1,0,0,0,0,0,0,0,0,0,0,0,0,0,0,1,
scooby_state_41191a|57|12 1,0,0,0,0,0,0,0,0,0,0,0,0,0,0,1,
scooby_state_4450fb|4|-4 1,0,0,0,0,0,0,0,0,0,0,0,0,0,0,1,
scooby_state_47133d|54|39 1,0,0,0,0,0,0,0,0,0,0,0,0,0,0,1,
scooby_state_63f87f|25|0 1,0,0,0,0,0,0,0,0,0,0,0,0,0,0,1,
scooby_state_416eb3|34|25 0,0,0,0,0,0,0,0,0,0,0,1,0,0,0,1,
scooby_state_54fe9b|1|-29 1,0,0,0,0,0,0,0,0,0,0,0,0,0,0,1,
scooby_state_41cc70|34|-1 0,0,0,0,0,0,0,0,0,0,0,1,0,0,0,1,
scooby_state_55833c|24|17 1,0,0,0,0,0,0,0,0,0,0,0,0,0,0,1,
scooby_state_4441d5|31|-9 1,0,0,0,0,0,0,0,0,0,0,0,0,0,0,1,
scooby_state_471349|49|-3 0,0,0,0,0,0,1,0,0,0,0,0,0,0,0,1,
scooby_state_41d1f4|44|31 0,0,1,0,0,0,0,0,0,0,0,0,0,0,0,1,
scooby_state_47e640|1|0 1,0,0,0,0,0,0,0,0,0,0,0,0,0,0,1,
scooby_state_41cc78|39|34 1,0,0,0,0,0,0,0,0,0,0,0,0,0,0,1,
scooby_state_41d1f4|56|40 0,1,0,0,0,0,0,0,0,0,0,0,0,0,0,1,
scooby_state_471394|30|1 0,0,0,0,0,0,0,0,0,0,0,0,0,0,1,1,
scooby_state_41cc78|44|36 0,0,1,0,0,0,0,0,0,0,0,0,0,0,0,1,
scooby_state_55b73b|26|1 1,0,0,0,0,0,0,0,0,0,0,0,0,0,0,1,
scooby_state_444216|59|9 1,0,0,0,0,0,0,0,0,0,0,0,0,0,0,1,
scooby_state_620b09|28|0 0,0,0,0,0,0,0,0,0,0,0,0,0,1,0,1,
scooby_state_41cc78|40|-23 1,0,0,0,0,0,0,0,0,0,0,0,0,0,0,1,
scooby_state_620942|37|1 0,1,0,0,0,0,0,0,0,0,0,0,0,0,0,1,
scooby_state_545380|56|-1 0,0,0,0,0,0,0,0,0,0,0,0,1,0,0,1,
scooby_state_416eb6|42|26 1,0,0,0,0,0,0,0,0,0,0,0,0,0,0,1,
scooby_state_620d80|54|14 0,1,0,0,0,0,0,0,0,0,0,0,0,0,0,1,
scooby_state_47d453|16|-5 1,0,0,0,0,0,0,0,0,0,0,0,0,0,0,1,
scooby_state_55039d|54|-6 0,1,0,0,0,0,0,0,0,0,0,0,0,0,0,1,
scooby_state_4712ab|49|16 1,0,0,0,0,0,0,0,0,0,0,0,0,0,0,1,
scooby_state_550dc2|55|1 1,0,0,0,0,0,0,0,0,0,0,0,0,0,0,1,
scooby_state_49c1ec|49|7 0,0,0,0,0,0,0,0,0,0,0,0,1,0,0,1,
scooby_state_63f889|44|0 1,0,0,0,0,0,0,0,0,0,0,0,0,0,0,1,
scooby_state_47ebc2|47|1 1,0,0,0,0,0,0,0,0,0,0,0,0,0,0,1,
scooby_state_4ec000|16|-17 0,0,0,0,0,0,0,0,1,0,0,0,0,0,0,1,
scooby_state_439cc5|51|1 1,0,0,0,0,0,0,0,0,0,0,0,0,0,0,1,
scooby_state_444020|56|5 1,0,0,0,0,0,0,0,0,0,0,0,0,0,0,1,
scooby_state_41195a|9|-28 0,1,0,0,0,0,0,0,0,0,0,0,0,0,0,1,
scooby_state_47d453|21|-15 1,0,0,0,0,0,0,0,0,0,0,0,0,0,0,1,
scooby_state_62215a|48|0 1,0,0,0,0,0,0,0,0,0,0,0,0,0,0,1,
scooby_state_53f4f2|19|1 1,0,0,0,0,0,0,0,0,0,0,0,0,0,0,1,
scooby_state_416eb6|34|14 1,0,0,0,0,0,0,0,0,0,0,0,0,0,0,1,
scooby_state_4168cb|37|28 0,0,0,0,0,0,0,0,0,0,0,1,0,0,0,1,
scooby_state_54515b|31|-20 1,0,0,0,0,0,0,0,0,0,0,0,0,0,0,1,
scooby_state_4712bc|14|1 0,1,0,0,0,0,0,0,0,0,0,0,0,0,0,1,
scooby_state_6408a0|34|2 0,0,0,0,0,0,1,0,0,0,0,0,0,0,0,1,
scooby_state_54fe9b|30|8 1,0,0,0,0,0,0,0,0,0,0,0,0,0,0,1,
scooby_state_55bf60|61|8 0,1,0,0,0,0,0,0,0,0,0,0,0,0,0,1,
scooby_state_4712af|7|-6 0,0,0,0,0,0,0,0,0,0,0,1,0,0,0,1,
scooby_state_4340f0|58|49 0,0,0,0,0,0,0,0,0,0,0,0,1,0,0,1,
scooby_state_4713b5|16|2 0,0,0,0,0,0,0,0,0,0,0,1,0,0,0,1,
scooby_state_6225da|24|4 0,0,0,0,0,0,0,1,0,0,0,0,0,0,0,1,
scooby_state_620b09|50|0 0,0,0,0,0,0,0,0,0,0,0,0,0,1,0,1,
scooby_state_4441c7|31|-8 0,0,0,1,0,0,0,0,0,0,0,0,0,0,0,1,

scooby_action_0_deg_dist 0,13828,0,0,0,0,0,0,0,0,0,0,0,0,0,0,
scooby_action_-6_deg_dist 0,47945,30,0,1,0,0,0,0,0,0,0,0,0,0,0,
scooby_action_4_deg_dist 0,51779,27,0,0,0,0,0,0,0,0,0,0,0,0,0,
scooby_action_1_deg_dist 0,1759863,119254,0,78829,0,20841,0,0,0,0,0,0,0,0,0,
scooby_action_30_deg_dist 0,6231,3,0,0,0,0,0,0,0,0,0,0,0,0,0,
scooby_action_5_deg_dist 0,21610,10,0,0,0,0,0,0,0,0,0,0,0,0,0,
scooby_action_3_deg_dist 0,251227,8796,0,1502,0,370,0,0,0,0,0,0,0,0,0,
scooby_action_32_deg_dist 0,5858,0,0,0,0,0,0,0,0,0,0,0,0,0,0,
scooby_action_10_deg_dist 0,18492,2,0,0,0,0,0,0,0,0,0,0,0,0,0,
scooby_action_11_deg_dist 0,7710,1,0,0,0,0,0,0,0,0,0,0,0,0,0,
scooby_action_12_deg_dist 0,11317,1,0,0,0,0,0,0,0,0,0,0,0,0,0,
scooby_action_23_deg_dist 0,9021,0,0,0,0,0,0,0,0,0,0,0,0,0,0,
scooby_action_-1_deg_dist 0,124713,753,0,72,0,1,0,0,0,0,0,0,0,0,0,
scooby_action_22_deg_dist 0,8321,0,0,0,0,0,0,0,0,0,0,0,0,0,0,
scooby_action_-3_deg_dist 0,40706,2,0,0,0,0,0,0,0,0,0,0,0,0,0,

scooby_track_called 2609116
scooby_track_same_address 212870
scooby_track_evict 2395990

scooby_reward_demand_called 2609116
scooby_reward_demand_pt_not_found 2029131
scooby_reward_demand_pt_found 579985
scooby_reward_demand_pt_found_total 579985
scooby_reward_demand_has_reward 3504
scooby_reward_train_called 1751739
scooby_reward_assign_reward_called 2396048
scooby_reward_no_pref 13827
scooby_reward_incorrect 1737912
scooby_reward_correct_untimely 231533
scooby_reward_correct_timely 344948
scooby_reward_out_of_bounds 67828
scooby_reward_tracker_hit 0

scooby_reward_none_low_bw 13827
scooby_reward_none_high_bw 0
scooby_reward_incorrect_low_bw 1737912
scooby_reward_incorrect_high_bw 0
scooby_reward_correct_untimely_low_bw 231533
scooby_reward_correct_untimely_high_bw 0
scooby_reward_correct_timely_low_bw 344948
scooby_reward_correct_timely_high_bw 0
scooby_reward_out_of_bounds_low_bw 67828
scooby_reward_out_of_bounds_high_bw 0
scooby_reward_tracker_hit_low_bw 0
scooby_reward_tracker_hit_high_bw 0

scooby_reward_1 0,1452731,182247,176447,28088,0,
scooby_reward_3 0,102960,16783,111763,11689,0,
scooby_reward_4 0,26577,3020,11109,2946,0,
scooby_reward_5 0,12509,185,4913,1604,0,
scooby_reward_10 0,11209,2819,1155,2230,0,
scooby_reward_11 0,5788,149,238,1150,0,
scooby_reward_12 0,7260,622,1070,1822,0,
scooby_reward_22 0,5497,456,82,2100,0,
scooby_reward_23 0,5670,31,499,2716,0,
scooby_reward_30 0,3618,30,32,2438,0,
scooby_reward_32 0,3165,26,19,2550,0,
scooby_reward_-1 0,49162,21909,15199,1881,0,
scooby_reward_-3 0,28474,1346,6284,1981,0,
scooby_reward_-6 0,23292,1910,16138,4633,0,
scooby_reward_0 13827,0,0,0,0,0,

scooby_train_called 2395989
scooby_train_compute_reward 1751739

scooby_register_fill_called 1575516
scooby_register_fill_set 1432827
scooby_register_fill_set_total 1432827

scooby_register_prefetch_hit_called 911196
scooby_register_prefetch_hit_set 773938
scooby_register_prefetch_hit_set_total 773938

scooby_pref_issue_scooby 2692975

learning_engine_featurewise.action.called 2609116
learning_engine_featurewise.action.explore 4792
learning_engine_featurewise.action.exploit 2604324
learning_engine_featurewise.action.fallback 1405584
learning_engine_featurewise.action.dyn_fallback_saved_bw 0
learning_engine_featurewise.action.dyn_fallback_saved_bw_acc 50213
learning_engine_featurewise.action.index_1_explored 311
learning_engine_featurewise.action.index_1_exploited 1978476
learning_engine_featurewise.action.index_3_explored 332
learning_engine_featurewise.action.index_3_exploited 261563
learning_engine_featurewise.action.index_4_explored 330
learning_engine_featurewise.action.index_4_exploited 51476
learning_engine_featurewise.action.index_5_explored 286
learning_engine_featurewise.action.index_5_exploited 21334
learning_engine_featurewise.action.index_10_explored 364
learning_engine_featurewise.action.index_10_exploited 18130
learning_engine_featurewise.action.index_11_explored 327
learning_engine_featurewise.action.index_11_exploited 7384
learning_engine_featurewise.action.index_12_explored 321
learning_engine_featurewise.action.index_12_exploited 10997
learning_engine_featurewise.action.index_22_explored 329
learning_engine_featurewise.action.index_22_exploited 7992
learning_engine_featurewise.action.index_23_explored 319
learning_engine_featurewise.action.index_23_exploited 8702
learning_engine_featurewise.action.index_30_explored 314
learning_engine_featurewise.action.index_30_exploited 5920
learning_engine_featurewise.action.index_32_explored 277
learning_engine_featurewise.action.index_32_exploited 5581
learning_engine_featurewise.action.index_-1_explored 321
learning_engine_featurewise.action.index_-1_exploited 125218
learning_engine_featurewise.action.index_-3_explored 326
learning_engine_featurewise.action.index_-3_exploited 40382
learning_engine_featurewise.action.index_-6_explored 302
learning_engine_featurewise.action.index_-6_exploited 47674
learning_engine_featurewise.action.index_0_explored 333
learning_engine_featurewise.action.index_0_exploited 13495
learning_engine_featurewise.learn.called 2395989
learning_engine_featurewise.learn.su_skip_PC 0
learning_engine_featurewise.learn.su_skip_PC_Delta 0

learning_engine_featurewise.q_value_histogram.bucket_0 7880
learning_engine_featurewise.q_value_histogram.bucket_1 12897
learning_engine_featurewise.q_value_histogram.bucket_2 1617100
learning_engine_featurewise.q_value_histogram.bucket_3 153765
learning_engine_featurewise.q_value_histogram.bucket_4 184064
learning_engine_featurewise.q_value_histogram.bucket_5 362625
learning_engine_featurewise.q_value_histogram.bucket_6 265993
learning_engine_featurewise.q_value_histogram.bucket_7 0

learning_engine_featurewise.consensus.total 2604324
learning_engine_featurewise.consensus.feature_align_PC 2358286
learning_engine_featurewise.consensus.feature_align_PC_ratio 0.91
learning_engine_featurewise.consensus.feature_align_PC_Delta 2295612
learning_engine_featurewise.consensus.feature_align_PC_Delta_ratio 0.88
learning_engine_featurewise.consensus.feature_align_all 2069460
learning_engine_featurewise.consensus.feature_align_all_ratio 0.79

learning_engine_featurewise.feature_PC_min_weight 1000000.00000000
learning_engine_featurewise.feature_PC_max_weight 0.00000000
learning_engine_featurewise.feature_PC_Delta_min_weight 1000000.00000000
learning_engine_featurewise.feature_PC_Delta_max_weight 0.00000000
unique_pcs 1194
unique_pages 50022
unique_trigger_pcs 708
total_bitmaps_seen 0
unique_bitmaps_seen 0

scooby_bw_epochs 1791644
scooby_bw_level_0 1695780
scooby_bw_level_1 94059
scooby_bw_level_2 1788
scooby_bw_level_3 17

scooby_ipc_epochs 0
scooby_ipc_level_0 0
scooby_ipc_level_1 0
scooby_ipc_level_2 0
scooby_ipc_level_3 0

scooby_cache_acc_epochs 401310
scooby_cache_acc_level_0 67703
scooby_cache_acc_level_1 69248
scooby_cache_acc_level_2 75768
scooby_cache_acc_level_3 69332
scooby_cache_acc_level_4 39021
scooby_cache_acc_level_5 35680
scooby_cache_acc_level_6 18546
scooby_cache_acc_level_7 9701
scooby_cache_acc_level_8 4802
scooby_cache_acc_level_9 11509

Channel_0_RQ_row_buffer_hit 147438
Channel_0_RQ_row_buffer_miss 1378619
Channel_0_WQ_row_buffer_hit 88284
Channel_0_WQ_row_buffer_miss 393129
Channel_0_WQ_full 0
Channel_0_dbus_congested 744746

avg_congested_cycle 7

DRAM_bw_pochs 1791644
DRAM_bw_level_0 1695780
DRAM_bw_level_1 94059
DRAM_bw_level_2 1788
DRAM_bw_level_3 17
