*************************************************
   ChampSim Multicore Out-of-Order Simulator
   Last compiled: Feb  6 2025 20:33:19
*************************************************
parsing config file: /home/wzz/Pythia/config/mlop.ini

trace_0 /home/wzz/Pythia/traces/621.wrf_s-6673B.champsimtrace.xz
adding L2C_PREFETCHER: MLOP
Initialize SHIP state
warmup_instructions 40000000
simulation_instructions 100000000
champsim_seed 280
measure_ipc 0
measure_ipc_epoch 1000
measure_dram_bw 1
measure_dram_bw_epoch 256
measure_cache_acc 1
measure_cache_acc_epoch 1024
l1d_perfect 0
l2c_perfect 0
llc_perfect 0
l1d_semi_perfect 0
l2c_semi_perfect 0
llc_semi_perfect 0
semi_perfect_cache_page_buffer_size 64

num_cpus 1
cpu_freq 4000
dram_io_freq 2400
page_size 4096
block_size 64
max_read_per_cycle 8
max_fill_per_cycle 1
dram_channels 1
log2_dram_channels 0
dram_ranks 1
dram_banks 8
dram_rows 65536
dram_columns 128
dram_row_size 8
dram_size 4096
dram_pages 1048576

fetch_width 6
decode_width 6
exec_width 4
lq_width 2
sq_width 2
retire_width 4
scheduler_size 128
branch_mispredict_penalty 20
rob_size 256
lq_size 72
sq_size 56
num_instr_destinations_sparc 4
num_instr_destinations 2
num_instr_sources 4

itlb_set 16
itlb_way 8
itlb_rq_size 16
itlb_wq_size 16
itlb_pq_size 0
itlb_mshr_size 8
itlb_latency 1

dtlb_set 16
dtlb_way 4
dtlb_rq_size 16
dtlb_wq_size 16
dtlb_pq_size 0
dtlb_mshr_size 8
dtlb_latency 1

stlb_set 128
stlb_way 12
stlb_rq_size 32
stlb_wq_size 32
stlb_pq_size 0
stlb_mshr_size 16
stlb_latency 8

l1i_size 32
l1i_set 64
l1i_way 8
l1i_rq_size 64
l1i_wq_size 64
l1i_pq_size 8
l1i_mshr_size 8
l1i_latency 1

l1d_size 32
l1d_set 64
l1d_way 8
l1d_rq_size 64
l1d_wq_size 64
l1d_pq_size 8
l1d_mshr_size 16
l1d_latency 4

l2c_size 256
l2c_set 512
l2c_way 8
l2c_rq_size 32
l2c_wq_size 32
l2c_pq_size 32
l2c_mshr_size 32
l2c_latency 10

llc_size 2048
llc_set 2048
llc_way 16
llc_rq_size 32
llc_wq_size 32
llc_pq_size 32
llc_mshr_size 64
llc_latency 20

dram_channel_width 8
dram_wq_size 64
dram_rq_size 64
tRP 15
tRCD 15
tCAS 12.5
dram_dbus_turn_around_time 30
dram_write_high_wm 56
dram_write_low_wm 48
min_dram_writes_per_switch 16
dram_mtps 2400
dram_dbus_return_time 13

mlop_pref_degree 16
mlop_num_updates 500
mlop_l1d_thresh 2
mlop_l2c_thresh 0.75
mlop_llc_thresh 0.3
mlop_debug_level 0
mlop_blocks_in_cache 4096
mlop_blocks_in_zone 64
mlop_amt_size 2048
mlop_PF_DEGREE 16
mlop_NUM_UPDATES 500
mlop_L1D_THRESH 1000
mlop_L2C_THRESH 375
mlop_LLC_THRESH 150
mlop_ORIGIN 63
mlop_MAX_OFFSET 63
mlop_MIN_OFFSET -63
mlop_ORIGIN 63
mlop_NUM_OFFSETS 127


Heartbeat CPU  0 instructions:    1000001 cycles:     439923 heartbeat IPC: 2.27313 cumulative IPC: 2.27313 (Simulation time: 0 hr 0 min 4 sec) 
Heartbeat CPU  0 instructions:    2000002 cycles:     855405 heartbeat IPC: 2.40685 cumulative IPC: 2.33808 (Simulation time: 0 hr 0 min 8 sec) 
Heartbeat CPU  0 instructions:    3000001 cycles:    1397490 heartbeat IPC: 1.84473 cumulative IPC: 2.14671 (Simulation time: 0 hr 0 min 13 sec) 
Heartbeat CPU  0 instructions:    4000000 cycles:    2020691 heartbeat IPC: 1.60462 cumulative IPC: 1.97952 (Simulation time: 0 hr 0 min 17 sec) 
Heartbeat CPU  0 instructions:    5000001 cycles:    2652233 heartbeat IPC: 1.58343 cumulative IPC: 1.88520 (Simulation time: 0 hr 0 min 22 sec) 
Heartbeat CPU  0 instructions:    6000001 cycles:    3286496 heartbeat IPC: 1.57663 cumulative IPC: 1.82565 (Simulation time: 0 hr 0 min 26 sec) 
Heartbeat CPU  0 instructions:    7000000 cycles:    3916429 heartbeat IPC: 1.58747 cumulative IPC: 1.78734 (Simulation time: 0 hr 0 min 31 sec) 
Heartbeat CPU  0 instructions:    8000000 cycles:    4547140 heartbeat IPC: 1.58551 cumulative IPC: 1.75935 (Simulation time: 0 hr 0 min 36 sec) 
Heartbeat CPU  0 instructions:    9000000 cycles:    5174650 heartbeat IPC: 1.59360 cumulative IPC: 1.73925 (Simulation time: 0 hr 0 min 40 sec) 
Heartbeat CPU  0 instructions:   10000000 cycles:    5737041 heartbeat IPC: 1.77812 cumulative IPC: 1.74306 (Simulation time: 0 hr 0 min 44 sec) 
Heartbeat CPU  0 instructions:   11000000 cycles:    6126215 heartbeat IPC: 2.56954 cumulative IPC: 1.79556 (Simulation time: 0 hr 0 min 48 sec) 
Heartbeat CPU  0 instructions:   12000000 cycles:    6521691 heartbeat IPC: 2.52860 cumulative IPC: 1.84001 (Simulation time: 0 hr 0 min 52 sec) 
Heartbeat CPU  0 instructions:   13000000 cycles:    6971158 heartbeat IPC: 2.22486 cumulative IPC: 1.86483 (Simulation time: 0 hr 0 min 57 sec) 
Heartbeat CPU  0 instructions:   14000001 cycles:    7421851 heartbeat IPC: 2.21881 cumulative IPC: 1.88632 (Simulation time: 0 hr 1 min 1 sec) 
Heartbeat CPU  0 instructions:   15000003 cycles:    7882975 heartbeat IPC: 2.16862 cumulative IPC: 1.90284 (Simulation time: 0 hr 1 min 6 sec) 
Heartbeat CPU  0 instructions:   16000000 cycles:    8315163 heartbeat IPC: 2.31380 cumulative IPC: 1.92420 (Simulation time: 0 hr 1 min 10 sec) 
Heartbeat CPU  0 instructions:   17000003 cycles:    8679490 heartbeat IPC: 2.74480 cumulative IPC: 1.95864 (Simulation time: 0 hr 1 min 14 sec) 
Heartbeat CPU  0 instructions:   18000002 cycles:    9040118 heartbeat IPC: 2.77294 cumulative IPC: 1.99112 (Simulation time: 0 hr 1 min 17 sec) 
Heartbeat CPU  0 instructions:   19000001 cycles:    9405929 heartbeat IPC: 2.73365 cumulative IPC: 2.02000 (Simulation time: 0 hr 1 min 21 sec) 
Heartbeat CPU  0 instructions:   20000000 cycles:    9826322 heartbeat IPC: 2.37872 cumulative IPC: 2.03535 (Simulation time: 0 hr 1 min 26 sec) 
Heartbeat CPU  0 instructions:   21000003 cycles:   10252059 heartbeat IPC: 2.34888 cumulative IPC: 2.04837 (Simulation time: 0 hr 1 min 30 sec) 
Heartbeat CPU  0 instructions:   22000000 cycles:   10684325 heartbeat IPC: 2.31338 cumulative IPC: 2.05909 (Simulation time: 0 hr 1 min 34 sec) 
Heartbeat CPU  0 instructions:   23000001 cycles:   11116689 heartbeat IPC: 2.31287 cumulative IPC: 2.06896 (Simulation time: 0 hr 1 min 38 sec) 
Heartbeat CPU  0 instructions:   24000000 cycles:   11454873 heartbeat IPC: 2.95697 cumulative IPC: 2.09518 (Simulation time: 0 hr 1 min 41 sec) 
Heartbeat CPU  0 instructions:   25000003 cycles:   11787465 heartbeat IPC: 3.00670 cumulative IPC: 2.12090 (Simulation time: 0 hr 1 min 44 sec) 
Heartbeat CPU  0 instructions:   26000001 cycles:   12167558 heartbeat IPC: 2.63093 cumulative IPC: 2.13683 (Simulation time: 0 hr 1 min 47 sec) 
Heartbeat CPU  0 instructions:   27000002 cycles:   12554118 heartbeat IPC: 2.58692 cumulative IPC: 2.15069 (Simulation time: 0 hr 1 min 50 sec) 
Heartbeat CPU  0 instructions:   28000000 cycles:   12920648 heartbeat IPC: 2.72828 cumulative IPC: 2.16707 (Simulation time: 0 hr 1 min 54 sec) 
Heartbeat CPU  0 instructions:   29000002 cycles:   13287122 heartbeat IPC: 2.72871 cumulative IPC: 2.18256 (Simulation time: 0 hr 1 min 58 sec) 
Heartbeat CPU  0 instructions:   30000002 cycles:   13653621 heartbeat IPC: 2.72852 cumulative IPC: 2.19722 (Simulation time: 0 hr 2 min 1 sec) 
Heartbeat CPU  0 instructions:   31000002 cycles:   14020160 heartbeat IPC: 2.72822 cumulative IPC: 2.21110 (Simulation time: 0 hr 2 min 5 sec) 
Heartbeat CPU  0 instructions:   32000000 cycles:   14398714 heartbeat IPC: 2.64163 cumulative IPC: 2.22242 (Simulation time: 0 hr 2 min 9 sec) 
Heartbeat CPU  0 instructions:   33000003 cycles:   14778082 heartbeat IPC: 2.63597 cumulative IPC: 2.23304 (Simulation time: 0 hr 2 min 12 sec) 
Heartbeat CPU  0 instructions:   34000001 cycles:   15177107 heartbeat IPC: 2.50610 cumulative IPC: 2.24022 (Simulation time: 0 hr 2 min 15 sec) 
Heartbeat CPU  0 instructions:   35000002 cycles:   15630443 heartbeat IPC: 2.20587 cumulative IPC: 2.23922 (Simulation time: 0 hr 2 min 19 sec) 
Heartbeat CPU  0 instructions:   36000000 cycles:   16078216 heartbeat IPC: 2.23327 cumulative IPC: 2.23905 (Simulation time: 0 hr 2 min 23 sec) 
Heartbeat CPU  0 instructions:   37000002 cycles:   16578997 heartbeat IPC: 1.99688 cumulative IPC: 2.23174 (Simulation time: 0 hr 2 min 27 sec) 
Heartbeat CPU  0 instructions:   38000001 cycles:   16987608 heartbeat IPC: 2.44731 cumulative IPC: 2.23692 (Simulation time: 0 hr 2 min 32 sec) 
Heartbeat CPU  0 instructions:   39000001 cycles:   17389116 heartbeat IPC: 2.49061 cumulative IPC: 2.24278 (Simulation time: 0 hr 2 min 36 sec) 
Heartbeat CPU  0 instructions:   40000000 cycles:   17775333 heartbeat IPC: 2.58922 cumulative IPC: 2.25031 (Simulation time: 0 hr 2 min 40 sec) 

Warmup complete CPU  0 instructions:   40000002 cycles:   17775334 (Simulation time: 0 hr 2 min 40 sec) 

Heartbeat CPU  0 instructions:   41000001 cycles:   18694218 heartbeat IPC: 1.08828 cumulative IPC: 1.08828 (Simulation time: 0 hr 2 min 45 sec) 
Heartbeat CPU  0 instructions:   42000001 cycles:   19536259 heartbeat IPC: 1.18759 cumulative IPC: 1.13577 (Simulation time: 0 hr 2 min 49 sec) 
Heartbeat CPU  0 instructions:   43000000 cycles:   21835281 heartbeat IPC: 0.43497 cumulative IPC: 0.73893 (Simulation time: 0 hr 2 min 56 sec) 
Heartbeat CPU  0 instructions:   44000000 cycles:   23124086 heartbeat IPC: 0.77591 cumulative IPC: 0.74784 (Simulation time: 0 hr 3 min 1 sec) 
Heartbeat CPU  0 instructions:   45000001 cycles:   24355993 heartbeat IPC: 0.81175 cumulative IPC: 0.75980 (Simulation time: 0 hr 3 min 6 sec) 
Heartbeat CPU  0 instructions:   46000003 cycles:   25537100 heartbeat IPC: 0.84667 cumulative IPC: 0.77302 (Simulation time: 0 hr 3 min 11 sec) 
Heartbeat CPU  0 instructions:   47000001 cycles:   26596289 heartbeat IPC: 0.94412 cumulative IPC: 0.79356 (Simulation time: 0 hr 3 min 15 sec) 
Heartbeat CPU  0 instructions:   48000000 cycles:   27825134 heartbeat IPC: 0.81377 cumulative IPC: 0.79604 (Simulation time: 0 hr 3 min 20 sec) 
Heartbeat CPU  0 instructions:   49000000 cycles:   29076126 heartbeat IPC: 0.79937 cumulative IPC: 0.79640 (Simulation time: 0 hr 3 min 26 sec) 
Heartbeat CPU  0 instructions:   50000003 cycles:   30358580 heartbeat IPC: 0.77976 cumulative IPC: 0.79471 (Simulation time: 0 hr 3 min 32 sec) 
Heartbeat CPU  0 instructions:   51000001 cycles:   31505806 heartbeat IPC: 0.87167 cumulative IPC: 0.80114 (Simulation time: 0 hr 3 min 37 sec) 
Heartbeat CPU  0 instructions:   52000000 cycles:   33134888 heartbeat IPC: 0.61384 cumulative IPC: 0.78127 (Simulation time: 0 hr 3 min 43 sec) 
Heartbeat CPU  0 instructions:   53000000 cycles:   34067388 heartbeat IPC: 1.07239 cumulative IPC: 0.79793 (Simulation time: 0 hr 3 min 49 sec) 
Heartbeat CPU  0 instructions:   54000000 cycles:   35064163 heartbeat IPC: 1.00324 cumulative IPC: 0.80977 (Simulation time: 0 hr 3 min 54 sec) 
Heartbeat CPU  0 instructions:   55000000 cycles:   36109296 heartbeat IPC: 0.95682 cumulative IPC: 0.81815 (Simulation time: 0 hr 3 min 59 sec) 
Heartbeat CPU  0 instructions:   56000000 cycles:   37223389 heartbeat IPC: 0.89759 cumulative IPC: 0.82270 (Simulation time: 0 hr 4 min 4 sec) 
Heartbeat CPU  0 instructions:   57000002 cycles:   38701764 heartbeat IPC: 0.67642 cumulative IPC: 0.81237 (Simulation time: 0 hr 4 min 10 sec) 
Heartbeat CPU  0 instructions:   58000002 cycles:   40020481 heartbeat IPC: 0.75831 cumulative IPC: 0.80917 (Simulation time: 0 hr 4 min 16 sec) 
Heartbeat CPU  0 instructions:   59000003 cycles:   41235350 heartbeat IPC: 0.82313 cumulative IPC: 0.80989 (Simulation time: 0 hr 4 min 21 sec) 
Heartbeat CPU  0 instructions:   60000000 cycles:   42182225 heartbeat IPC: 1.05610 cumulative IPC: 0.81944 (Simulation time: 0 hr 4 min 27 sec) 
Heartbeat CPU  0 instructions:   61000002 cycles:   43173850 heartbeat IPC: 1.00845 cumulative IPC: 0.82682 (Simulation time: 0 hr 4 min 32 sec) 
Heartbeat CPU  0 instructions:   62000000 cycles:   44158973 heartbeat IPC: 1.01510 cumulative IPC: 0.83385 (Simulation time: 0 hr 4 min 37 sec) 
Heartbeat CPU  0 instructions:   63000000 cycles:   45132604 heartbeat IPC: 1.02708 cumulative IPC: 0.84073 (Simulation time: 0 hr 4 min 42 sec) 
Heartbeat CPU  0 instructions:   64000000 cycles:   46097129 heartbeat IPC: 1.03678 cumulative IPC: 0.84740 (Simulation time: 0 hr 4 min 47 sec) 
Heartbeat CPU  0 instructions:   65000001 cycles:   47042943 heartbeat IPC: 1.05729 cumulative IPC: 0.85419 (Simulation time: 0 hr 4 min 52 sec) 
Heartbeat CPU  0 instructions:   66000002 cycles:   47953322 heartbeat IPC: 1.09844 cumulative IPC: 0.86156 (Simulation time: 0 hr 4 min 57 sec) 
Heartbeat CPU  0 instructions:   67000001 cycles:   50328246 heartbeat IPC: 0.42107 cumulative IPC: 0.82942 (Simulation time: 0 hr 5 min 5 sec) 
Heartbeat CPU  0 instructions:   68000000 cycles:   53191853 heartbeat IPC: 0.34921 cumulative IPC: 0.79059 (Simulation time: 0 hr 5 min 13 sec) 
Heartbeat CPU  0 instructions:   69000000 cycles:   55232913 heartbeat IPC: 0.48994 cumulative IPC: 0.77421 (Simulation time: 0 hr 5 min 19 sec) 
Heartbeat CPU  0 instructions:   70000003 cycles:   56789740 heartbeat IPC: 0.64233 cumulative IPC: 0.76895 (Simulation time: 0 hr 5 min 25 sec) 
Heartbeat CPU  0 instructions:   71000002 cycles:   57845202 heartbeat IPC: 0.94745 cumulative IPC: 0.77365 (Simulation time: 0 hr 5 min 30 sec) 
Heartbeat CPU  0 instructions:   72000000 cycles:   58925595 heartbeat IPC: 0.92559 cumulative IPC: 0.77764 (Simulation time: 0 hr 5 min 35 sec) 
Heartbeat CPU  0 instructions:   73000001 cycles:   59965031 heartbeat IPC: 0.96206 cumulative IPC: 0.78218 (Simulation time: 0 hr 5 min 39 sec) 
Heartbeat CPU  0 instructions:   74000002 cycles:   61048557 heartbeat IPC: 0.92291 cumulative IPC: 0.78571 (Simulation time: 0 hr 5 min 44 sec) 
Heartbeat CPU  0 instructions:   75000000 cycles:   62223762 heartbeat IPC: 0.85091 cumulative IPC: 0.78743 (Simulation time: 0 hr 5 min 49 sec) 
Heartbeat CPU  0 instructions:   76000000 cycles:   63392463 heartbeat IPC: 0.85565 cumulative IPC: 0.78918 (Simulation time: 0 hr 5 min 55 sec) 
Heartbeat CPU  0 instructions:   77000003 cycles:   64491027 heartbeat IPC: 0.91028 cumulative IPC: 0.79203 (Simulation time: 0 hr 6 min 0 sec) 
Heartbeat CPU  0 instructions:   78000001 cycles:   65567283 heartbeat IPC: 0.92915 cumulative IPC: 0.79511 (Simulation time: 0 hr 6 min 6 sec) 
Heartbeat CPU  0 instructions:   79000000 cycles:   67082605 heartbeat IPC: 0.65993 cumulative IPC: 0.79096 (Simulation time: 0 hr 6 min 12 sec) 
Heartbeat CPU  0 instructions:   80000000 cycles:   68040713 heartbeat IPC: 1.04372 cumulative IPC: 0.79578 (Simulation time: 0 hr 6 min 17 sec) 
Heartbeat CPU  0 instructions:   81000002 cycles:   69040231 heartbeat IPC: 1.00048 cumulative IPC: 0.79977 (Simulation time: 0 hr 6 min 22 sec) 
Heartbeat CPU  0 instructions:   82000001 cycles:   70078748 heartbeat IPC: 0.96291 cumulative IPC: 0.80301 (Simulation time: 0 hr 6 min 27 sec) 
Heartbeat CPU  0 instructions:   83000001 cycles:   71429196 heartbeat IPC: 0.74050 cumulative IPC: 0.80143 (Simulation time: 0 hr 6 min 33 sec) 
Heartbeat CPU  0 instructions:   84000000 cycles:   72748530 heartbeat IPC: 0.75796 cumulative IPC: 0.80039 (Simulation time: 0 hr 6 min 39 sec) 
Heartbeat CPU  0 instructions:   85000003 cycles:   74122676 heartbeat IPC: 0.72773 cumulative IPC: 0.79862 (Simulation time: 0 hr 6 min 45 sec) 
Heartbeat CPU  0 instructions:   86000000 cycles:   75046825 heartbeat IPC: 1.08207 cumulative IPC: 0.80319 (Simulation time: 0 hr 6 min 50 sec) 
Heartbeat CPU  0 instructions:   87000003 cycles:   75997007 heartbeat IPC: 1.05243 cumulative IPC: 0.80726 (Simulation time: 0 hr 6 min 55 sec) 
Heartbeat CPU  0 instructions:   88000000 cycles:   77006075 heartbeat IPC: 0.99101 cumulative IPC: 0.81039 (Simulation time: 0 hr 7 min 1 sec) 
Heartbeat CPU  0 instructions:   89000002 cycles:   77988294 heartbeat IPC: 1.01810 cumulative IPC: 0.81378 (Simulation time: 0 hr 7 min 6 sec) 
Heartbeat CPU  0 instructions:   90000003 cycles:   78952387 heartbeat IPC: 1.03725 cumulative IPC: 0.81730 (Simulation time: 0 hr 7 min 11 sec) 
Heartbeat CPU  0 instructions:   91000001 cycles:   79911055 heartbeat IPC: 1.04311 cumulative IPC: 0.82078 (Simulation time: 0 hr 7 min 16 sec) 
Heartbeat CPU  0 instructions:   92000000 cycles:   80837185 heartbeat IPC: 1.07976 cumulative IPC: 0.82459 (Simulation time: 0 hr 7 min 21 sec) 
Heartbeat CPU  0 instructions:   93000001 cycles:   81758501 heartbeat IPC: 1.08540 cumulative IPC: 0.82834 (Simulation time: 0 hr 7 min 26 sec) 
Heartbeat CPU  0 instructions:   94000002 cycles:   83804476 heartbeat IPC: 0.48877 cumulative IPC: 0.81782 (Simulation time: 0 hr 7 min 34 sec) 
Heartbeat CPU  0 instructions:   95000000 cycles:   85484358 heartbeat IPC: 0.59528 cumulative IPC: 0.81230 (Simulation time: 0 hr 7 min 41 sec) 
Heartbeat CPU  0 instructions:   96000000 cycles:   87976231 heartbeat IPC: 0.40130 cumulative IPC: 0.79771 (Simulation time: 0 hr 7 min 48 sec) 
Heartbeat CPU  0 instructions:   97000003 cycles:   89877090 heartbeat IPC: 0.52608 cumulative IPC: 0.79055 (Simulation time: 0 hr 7 min 55 sec) 
Heartbeat CPU  0 instructions:   98000003 cycles:   91277886 heartbeat IPC: 0.71388 cumulative IPC: 0.78909 (Simulation time: 0 hr 8 min 0 sec) 
Heartbeat CPU  0 instructions:   99000001 cycles:   93429021 heartbeat IPC: 0.46487 cumulative IPC: 0.77987 (Simulation time: 0 hr 8 min 8 sec) 
Heartbeat CPU  0 instructions:  100000000 cycles:   95949636 heartbeat IPC: 0.39673 cumulative IPC: 0.76752 (Simulation time: 0 hr 8 min 15 sec) 
Heartbeat CPU  0 instructions:  101000000 cycles:   97132791 heartbeat IPC: 0.84520 cumulative IPC: 0.76867 (Simulation time: 0 hr 8 min 20 sec) 
Heartbeat CPU  0 instructions:  102000003 cycles:   97826079 heartbeat IPC: 1.44241 cumulative IPC: 0.77451 (Simulation time: 0 hr 8 min 24 sec) 
Heartbeat CPU  0 instructions:  103000002 cycles:   98522310 heartbeat IPC: 1.43630 cumulative IPC: 0.78021 (Simulation time: 0 hr 8 min 29 sec) 
Heartbeat CPU  0 instructions:  104000000 cycles:   99222000 heartbeat IPC: 1.42920 cumulative IPC: 0.78579 (Simulation time: 0 hr 8 min 33 sec) 
Heartbeat CPU  0 instructions:  105000001 cycles:   99916889 heartbeat IPC: 1.43908 cumulative IPC: 0.79132 (Simulation time: 0 hr 8 min 37 sec) 
Heartbeat CPU  0 instructions:  106000003 cycles:  100588364 heartbeat IPC: 1.48926 cumulative IPC: 0.79698 (Simulation time: 0 hr 8 min 41 sec) 
Heartbeat CPU  0 instructions:  107000001 cycles:  101227864 heartbeat IPC: 1.56372 cumulative IPC: 0.80285 (Simulation time: 0 hr 8 min 45 sec) 
Heartbeat CPU  0 instructions:  108000000 cycles:  101867237 heartbeat IPC: 1.56403 cumulative IPC: 0.80864 (Simulation time: 0 hr 8 min 49 sec) 
Heartbeat CPU  0 instructions:  109000000 cycles:  102505206 heartbeat IPC: 1.56747 cumulative IPC: 0.81435 (Simulation time: 0 hr 8 min 53 sec) 
Heartbeat CPU  0 instructions:  110000001 cycles:  103144656 heartbeat IPC: 1.56385 cumulative IPC: 0.81997 (Simulation time: 0 hr 8 min 58 sec) 
Heartbeat CPU  0 instructions:  111000003 cycles:  103796674 heartbeat IPC: 1.53370 cumulative IPC: 0.82538 (Simulation time: 0 hr 9 min 2 sec) 
Heartbeat CPU  0 instructions:  112000000 cycles:  104461506 heartbeat IPC: 1.50413 cumulative IPC: 0.83058 (Simulation time: 0 hr 9 min 6 sec) 
Heartbeat CPU  0 instructions:  113000003 cycles:  105126357 heartbeat IPC: 1.50410 cumulative IPC: 0.83571 (Simulation time: 0 hr 9 min 10 sec) 
Heartbeat CPU  0 instructions:  114000000 cycles:  105794041 heartbeat IPC: 1.49771 cumulative IPC: 0.84073 (Simulation time: 0 hr 9 min 14 sec) 
Heartbeat CPU  0 instructions:  115000003 cycles:  106468866 heartbeat IPC: 1.48187 cumulative IPC: 0.84561 (Simulation time: 0 hr 9 min 18 sec) 
Heartbeat CPU  0 instructions:  116000000 cycles:  107418709 heartbeat IPC: 1.05280 cumulative IPC: 0.84780 (Simulation time: 0 hr 9 min 23 sec) 
Heartbeat CPU  0 instructions:  117000000 cycles:  108314148 heartbeat IPC: 1.11677 cumulative IPC: 0.85046 (Simulation time: 0 hr 9 min 28 sec) 
Heartbeat CPU  0 instructions:  118000000 cycles:  109649683 heartbeat IPC: 0.74876 cumulative IPC: 0.84899 (Simulation time: 0 hr 9 min 33 sec) 
Heartbeat CPU  0 instructions:  119000003 cycles:  110366828 heartbeat IPC: 1.39442 cumulative IPC: 0.85321 (Simulation time: 0 hr 9 min 37 sec) 
Heartbeat CPU  0 instructions:  120000000 cycles:  111093352 heartbeat IPC: 1.37641 cumulative IPC: 0.85728 (Simulation time: 0 hr 9 min 42 sec) 
Heartbeat CPU  0 instructions:  121000003 cycles:  111827514 heartbeat IPC: 1.36210 cumulative IPC: 0.86122 (Simulation time: 0 hr 9 min 46 sec) 
Heartbeat CPU  0 instructions:  122000002 cycles:  112541782 heartbeat IPC: 1.40003 cumulative IPC: 0.86529 (Simulation time: 0 hr 9 min 50 sec) 
Heartbeat CPU  0 instructions:  123000002 cycles:  113235294 heartbeat IPC: 1.44194 cumulative IPC: 0.86947 (Simulation time: 0 hr 9 min 54 sec) 
Heartbeat CPU  0 instructions:  124000000 cycles:  113904615 heartbeat IPC: 1.49405 cumulative IPC: 0.87382 (Simulation time: 0 hr 9 min 58 sec) 
Heartbeat CPU  0 instructions:  125000001 cycles:  114571520 heartbeat IPC: 1.49947 cumulative IPC: 0.87813 (Simulation time: 0 hr 10 min 2 sec) 
Heartbeat CPU  0 instructions:  126000003 cycles:  115232166 heartbeat IPC: 1.51367 cumulative IPC: 0.88244 (Simulation time: 0 hr 10 min 6 sec) 
Heartbeat CPU  0 instructions:  127000001 cycles:  115880336 heartbeat IPC: 1.54280 cumulative IPC: 0.88680 (Simulation time: 0 hr 10 min 10 sec) 
Heartbeat CPU  0 instructions:  128000000 cycles:  116555850 heartbeat IPC: 1.48035 cumulative IPC: 0.89086 (Simulation time: 0 hr 10 min 14 sec) 
Heartbeat CPU  0 instructions:  129000000 cycles:  117250914 heartbeat IPC: 1.43872 cumulative IPC: 0.89469 (Simulation time: 0 hr 10 min 18 sec) 
Heartbeat CPU  0 instructions:  130000003 cycles:  117942864 heartbeat IPC: 1.44520 cumulative IPC: 0.89849 (Simulation time: 0 hr 10 min 23 sec) 
Heartbeat CPU  0 instructions:  131000002 cycles:  118625950 heartbeat IPC: 1.46394 cumulative IPC: 0.90232 (Simulation time: 0 hr 10 min 27 sec) 
Heartbeat CPU  0 instructions:  132000000 cycles:  119378537 heartbeat IPC: 1.32875 cumulative IPC: 0.90548 (Simulation time: 0 hr 10 min 31 sec) 
Heartbeat CPU  0 instructions:  133000001 cycles:  120198808 heartbeat IPC: 1.21911 cumulative IPC: 0.90799 (Simulation time: 0 hr 10 min 35 sec) 
Heartbeat CPU  0 instructions:  134000003 cycles:  121625202 heartbeat IPC: 0.70107 cumulative IPC: 0.90515 (Simulation time: 0 hr 10 min 41 sec) 
Heartbeat CPU  0 instructions:  135000001 cycles:  122897547 heartbeat IPC: 0.78595 cumulative IPC: 0.90371 (Simulation time: 0 hr 10 min 46 sec) 
Heartbeat CPU  0 instructions:  136000000 cycles:  123684831 heartbeat IPC: 1.27019 cumulative IPC: 0.90643 (Simulation time: 0 hr 10 min 50 sec) 
Heartbeat CPU  0 instructions:  137000001 cycles:  124489691 heartbeat IPC: 1.24245 cumulative IPC: 0.90897 (Simulation time: 0 hr 10 min 55 sec) 
Heartbeat CPU  0 instructions:  138000000 cycles:  125292796 heartbeat IPC: 1.24517 cumulative IPC: 0.91148 (Simulation time: 0 hr 10 min 59 sec) 
Heartbeat CPU  0 instructions:  139000000 cycles:  126033289 heartbeat IPC: 1.35045 cumulative IPC: 0.91448 (Simulation time: 0 hr 11 min 3 sec) 
Heartbeat CPU  0 instructions:  140000000 cycles:  126771408 heartbeat IPC: 1.35480 cumulative IPC: 0.91746 (Simulation time: 0 hr 11 min 7 sec) 
Finished CPU 0 instructions: 100000000 cycles: 108996087 cumulative IPC: 0.91746 (Simulation time: 0 hr 11 min 7 sec) 

ChampSim completed all CPUs

[ROI Statistics]
Core_0_instructions 100000000
Core_0_cycles 108996087
Core_0_IPC 0.91746

Core_0_branch_prediction_accuracy 99.14191
Core_0_branch_MPKI 0.37474
Core_0_average_ROB_occupancy_at_mispredict 227.98986

Core_0_L1D_total_access 25423629
Core_0_L1D_total_hit 22747605
Core_0_L1D_total_miss 2676024
Core_0_L1D_loads 20813015
Core_0_L1D_load_hit 18560844
Core_0_L1D_load_miss 2252171
Core_0_L1D_RFOs 4610614
Core_0_L1D_RFO_hit 4186761
Core_0_L1D_RFO_miss 423853
Core_0_L1D_prefetches 0
Core_0_L1D_prefetch_hit 0
Core_0_L1D_prefetch_miss 0
Core_0_L1D_writebacks 0
Core_0_L1D_writeback_hit 0
Core_0_L1D_writeback_miss 0
Core_0_L1D_prefetch_requested 0
Core_0_L1D_prefetch_dropped 0
Core_0_L1D_prefetch_issued 0
Core_0_L1D_prefetch_filled 0
Core_0_L1D_prefetch_useful 0
Core_0_L1D_prefetch_useless 0
Core_0_L1D_prefetch_late 0
Core_0_L1D_average_miss_latency 94.30098

Core_0_L1D_rq_access 32636561
Core_0_L1D_rq_forward 0
Core_0_L1D_rq_merged 10671469
Core_0_L1D_rq_to_cache 21958347
Core_0_L1D_rq_full 0

Core_0_L1D_wq_access 5908969
Core_0_L1D_wq_forward 6745
Core_0_L1D_wq_merged 17422
Core_0_L1D_wq_to_cache 5891547
Core_0_L1D_wq_full 3528718

Core_0_L1D_pq_access 0
Core_0_L1D_pq_forward 0
Core_0_L1D_pq_merged 0
Core_0_L1D_pq_to_cache 0
Core_0_L1D_pq_full 0

Core_0_L1D_acc_epochs 121847
Core_0_L1D_acc_level_0 121847
Core_0_L1D_acc_level_1 0
Core_0_L1D_acc_level_2 0
Core_0_L1D_acc_level_3 0
Core_0_L1D_acc_level_4 0
Core_0_L1D_acc_level_5 0
Core_0_L1D_acc_level_6 0
Core_0_L1D_acc_level_7 0
Core_0_L1D_acc_level_8 0
Core_0_L1D_acc_level_9 0

Core_0_L1I_total_access 23243529
Core_0_L1I_total_hit 23239244
Core_0_L1I_total_miss 4285
Core_0_L1I_loads 23243529
Core_0_L1I_load_hit 23239244
Core_0_L1I_load_miss 4285
Core_0_L1I_RFOs 0
Core_0_L1I_RFO_hit 0
Core_0_L1I_RFO_miss 0
Core_0_L1I_prefetches 0
Core_0_L1I_prefetch_hit 0
Core_0_L1I_prefetch_miss 0
Core_0_L1I_writebacks 0
Core_0_L1I_writeback_hit 0
Core_0_L1I_writeback_miss 0
Core_0_L1I_prefetch_requested 0
Core_0_L1I_prefetch_dropped 0
Core_0_L1I_prefetch_issued 0
Core_0_L1I_prefetch_filled 0
Core_0_L1I_prefetch_useful 0
Core_0_L1I_prefetch_useless 0
Core_0_L1I_prefetch_late 0
Core_0_L1I_average_miss_latency 183.17270

Core_0_L1I_rq_access 100000005
Core_0_L1I_rq_forward 0
Core_0_L1I_rq_merged 76752731
Core_0_L1I_rq_to_cache 23247274
Core_0_L1I_rq_full 0

Core_0_L1I_wq_access 0
Core_0_L1I_wq_forward 0
Core_0_L1I_wq_merged 0
Core_0_L1I_wq_to_cache 0
Core_0_L1I_wq_full 0

Core_0_L1I_pq_access 0
Core_0_L1I_pq_forward 0
Core_0_L1I_pq_merged 0
Core_0_L1I_pq_to_cache 0
Core_0_L1I_pq_full 0

Core_0_L1I_acc_epochs 121847
Core_0_L1I_acc_level_0 121847
Core_0_L1I_acc_level_1 0
Core_0_L1I_acc_level_2 0
Core_0_L1I_acc_level_3 0
Core_0_L1I_acc_level_4 0
Core_0_L1I_acc_level_5 0
Core_0_L1I_acc_level_6 0
Core_0_L1I_acc_level_7 0
Core_0_L1I_acc_level_8 0
Core_0_L1I_acc_level_9 0

Core_0_L2C_total_access 5033690
Core_0_L2C_total_hit 3070177
Core_0_L2C_total_miss 1963513
Core_0_L2C_loads 2256320
Core_0_L2C_load_hit 1937830
Core_0_L2C_load_miss 318490
Core_0_L2C_RFOs 423853
Core_0_L2C_RFO_hit 155199
Core_0_L2C_RFO_miss 268654
Core_0_L2C_prefetches 1389745
Core_0_L2C_prefetch_hit 14963
Core_0_L2C_prefetch_miss 1374782
Core_0_L2C_writebacks 963772
Core_0_L2C_writeback_hit 962185
Core_0_L2C_writeback_miss 1587
Core_0_L2C_prefetch_requested 3414463
Core_0_L2C_prefetch_dropped 0
Core_0_L2C_prefetch_issued 3414463
Core_0_L2C_prefetch_filled 1950796
Core_0_L2C_prefetch_useful 1836014
Core_0_L2C_prefetch_useless 114672
Core_0_L2C_prefetch_late 32330
Core_0_L2C_average_miss_latency 257.55152

Core_0_L2C_rq_access 2680309
Core_0_L2C_rq_forward 0
Core_0_L2C_rq_merged 0
Core_0_L2C_rq_to_cache 2680173
Core_0_L2C_rq_full 0

Core_0_L2C_wq_access 963772
Core_0_L2C_wq_forward 150
Core_0_L2C_wq_merged 0
Core_0_L2C_wq_to_cache 963772
Core_0_L2C_wq_full 0

Core_0_L2C_pq_access 3414463
Core_0_L2C_pq_forward 0
Core_0_L2C_pq_merged 26628
Core_0_L2C_pq_to_cache 3387821
Core_0_L2C_pq_full 0

Core_0_L2C_acc_epochs 121847
Core_0_L2C_acc_level_0 13004
Core_0_L2C_acc_level_1 1711
Core_0_L2C_acc_level_2 1536
Core_0_L2C_acc_level_3 1629
Core_0_L2C_acc_level_4 2101
Core_0_L2C_acc_level_5 3088
Core_0_L2C_acc_level_6 4098
Core_0_L2C_acc_level_7 6266
Core_0_L2C_acc_level_8 10727
Core_0_L2C_acc_level_9 77687

Core_0_LLC_total_access 3471480
Core_0_LLC_total_hit 1533688
Core_0_LLC_total_miss 1937792
Core_0_LLC_loads 286634
Core_0_LLC_load_hit 97311
Core_0_LLC_load_miss 189323
Core_0_LLC_RFOs 268240
Core_0_LLC_RFO_hit 37474
Core_0_LLC_RFO_miss 230766
Core_0_LLC_prefetches 2208173
Core_0_LLC_prefetch_hit 890661
Core_0_LLC_prefetch_miss 1317512
Core_0_LLC_writebacks 708433
Core_0_LLC_writeback_hit 508242
Core_0_LLC_writeback_miss 200191
Core_0_LLC_prefetch_requested 0
Core_0_LLC_prefetch_dropped 0
Core_0_LLC_prefetch_issued 0
Core_0_LLC_prefetch_filled 1864296
Core_0_LLC_prefetch_useful 69436
Core_0_LLC_prefetch_useless 1774328
Core_0_LLC_prefetch_late 6449
Core_0_LLC_average_miss_latency 406.59217

Core_0_LLC_rq_access 554886
Core_0_LLC_rq_forward 0
Core_0_LLC_rq_merged 0
Core_0_LLC_rq_to_cache 554874
Core_0_LLC_rq_full 0

Core_0_LLC_wq_access 708433
Core_0_LLC_wq_forward 12
Core_0_LLC_wq_merged 0
Core_0_LLC_wq_to_cache 708433
Core_0_LLC_wq_full 0

Core_0_LLC_pq_access 3346965
Core_0_LLC_pq_forward 0
Core_0_LLC_pq_merged 6914
Core_0_LLC_pq_to_cache 3340051
Core_0_LLC_pq_full 0

Core_0_LLC_acc_epochs 123801
Core_0_LLC_acc_level_0 112694
Core_0_LLC_acc_level_1 4037
Core_0_LLC_acc_level_2 1858
Core_0_LLC_acc_level_3 1033
Core_0_LLC_acc_level_4 556
Core_0_LLC_acc_level_5 750
Core_0_LLC_acc_level_6 402
Core_0_LLC_acc_level_7 344
Core_0_LLC_acc_level_8 304
Core_0_LLC_acc_level_9 1823

Core_0_major_page_fault 0
Core_0_minor_page_fault 8986

[MLOP] History of tracked zone:
IIIIIIIIIIIIIIIIIIIIIIIIIIIIIIIIIIIIIIIIIIIIIIIIIIIIIIIIIIIIIIII
A222222222IIIIII44444I4IIIIIIIIIIIIIIIIIIIIIIIIIIIIIIIIIIIIIIIII
AA222222222IIIII44444444IIIIIIIIIIIIIIIIIIIIIIIIIIIIIIIIIIIIIIII
AAA222222222IIII444444444IIIIIIIIIIIIIIIIIIIIIIIIIIIIIIIIIIIIIII
AAAA222222222III4444444444IIIIIIIIIIIIIIIIIIIIIIIIIIIIIIIIIIIIII
AAAAA222222222II44444444444IIIIIIIIIIIIIIIIIIIIIIIIIIIIIIIIIIIII
AAAAAA222222222I444444444444IIIIIIIIIIIIIIIIIIIIIIIIIIIIIIIIIIII
AAAAAAA2222222224444444444444IIIIIIIIIIIIIIIIIIIIIIIIIIIIIIIIIII
AAAAAAAA2222222224444444444444IIIIIIIIIIIIIIIIIIIIIIIIIIIIIIIIII
AAAAAAAAA2222222224444444444444IIIIIIIIIIIIIIIIIIIIIIIIIIIIIIIII
AAAAAAAAAA2222222224444444444444IIIIIIIIIIIIIIIIIIIIIIIIIIIIIIII
AAAAAAAAAAA2222222224444444444444IIIIIIIIIIIIIIIIIIIIIIIIIIIIIII
AAAAAAAAAAAA2222222224444444444444IIIIIIIIIIIIIIIIIIIIIIIIIIIIII
AAAAAAAAAAAAA2222222224444444444444IIIIIIIIIIIIIIIIIIIIIIIIIIIII
AAAAAAAAAAAAAA2222222224444444444444IIIIIIIIIIIIIIIIIIIIIIIIIIII
AAAAAAAAAAAAAAA2222222224444444444444IIIIIIIIIIIIIIIIIIIIIIIIIII
AAAAAAAAAAAAAAAA2222222224444444444444IIIIIIIIIIIIIIIIIIIIIIIIII
AAAAAAAAAAAAAAAAA2222222224444444444444IIIIIIIIIIIIIIIIIIIIIIIII
AAAAAAAAAAAAAAAAAA2222222224444444444444IIIIIIIIIIIIIIIIIIIIIIII
AAAAAAAAAAAAAAAAAAA2222222224444444444444IIIIIIIIIIIIIIIIIIIIIII
AAAAAAAAAAAAAAAAAAAA2222222224444444444444IIIIIIIIIIIIIIIIIIIIII
AAAAAAAAAAAAAAAAAAAAA2222222224444444444444IIIIIIIIIIIIIIIIIIIII
AAAAAAAAAAAAAAAAAAAAAA2222222224444444444444IIIIIIIIIIIIIIIIIIII
AAAAAAAAAAAAAAAAAAAAAAA2222222224444444444444IIIIIIIIIIIIIIIIIII
AAAAAAAAAAAAAAAAAAAAAAAA2222222224444444444444IIIIIIIIIIIIIIIIII
AAAAAAAAAAAAAAAAAAAAAAAAA2222222224444444444444IIIIIIIIIIIIIIIII
AAAAAAAAAAAAAAAAAAAAAAAAAA2222222224444444444444IIIIIIIIIIIIIIII
AAAAAAAAAAAAAAAAAAAAAAAAAAA2222222224444444444444IIIIIIIIIIIIIII
AAAAAAAAAAAAAAAAAAAAAAAAAAAA2222222224444444444444IIIIIIIIIIIIII
AAAAAAAAAAAAAAAAAAAAAAAAAAAAA2222222224444444444444IIIIIIIIIIIII
AAAAAAAAAAAAAAAAAAAAAAAAAAAAAA2222222224444444444444IIIIIIIIIIII
AAAAAAAAAAAAAAAAAAAAAAAAAAAAAAA2222222224444444444444IIIIIIIIIII
AAAAAAAAAAAAAAAAAAAAAAAAAAAAAAAA2222222224444444444444IIIIIIIIII
AAAAAAAAAAAAAAAAAAAAAAAAAAAAAAAAA2222222224444444444444IIIIIIIII
AAAAAAAAAAAAAAAAAAAAAAAAAAAAAAAAAA2222222224444444444444IIIIIIII
AAAAAAAAAAAAAAAAAAAAAAAAAAAAAAAAAAA2222222224444444444444IIIIIII
AAAAAAAAAAAAAAAAAAAAAAAAAAAAAAAAAAAA2222222224444444444444IIIIII
AAAAAAAAAAAAAAAAAAAAAAAAAAAAAAAAAAAAA2222222224444444444444IIIII
AAAAAAAAAAAAAAAAAAAAAAAAAAAAAAAAAAAAAA2222222224444444444444IIII
AAAAAAAAAAAAAAAAAAAAAAAAAAAAAAAAAAAAAAA2222222224444444444444III
AAAAAAAAAAAAAAAAAAAAAAAAAAAAAAAAAAAAAAAA2222222224444444444444II
AAAAAAAAAAAAAAAAAAAAAAAAAAAAAAAAAAAAAAAAA2222222224444444444444I
AAAAAAAAAAAAAAAAAAAAAAAAAAAAAAAAAAAAAAAAAA2222222224444444444444
AAAAAAAAAAAAAAAAAAAAAAAAAAAAAAAAAAAAAAAAAAA222222222444444444444
AAAAAAAAAAAAAAAAAAAAAAAAAAAAAAAAAAAAAAAAAAAA22222222244444444444
AAAAAAAAAAAAAAAAAAAAAAAAAAAAAAAAAAAAAAAAAAAAA2222222224444444444
AAAAAAAAAAAAAAAAAAAAAAAAAAAAAAAAAAAAAAAAAAAAAA222222222444444444
AAAAAAAAAAAAAAAAAAAAAAAAAAAAAAAAAAAAAAAAAAAAAAA22222222244444444
AAAAAAAAAAAAAAAAAAAAAAAAAAAAAAAAAAAAAAAAAAAAAAAA2222222224444444
AAAAAAAAAAAAAAAAAAAAAAAAAAAAAAAAAAAAAAAAAAAAAAAAA222222222444444
AAAAAAAAAAAAAAAAAAAAAAAAAAAAAAAAAAAAAAAAAAAAAAAAAA22222222244444
AAAAAAAAAAAAAAAAAAAAAAAAAAAAAAAAAAAAAAAAAAAAAAAAAAA2222222224444
AAAAAAAAAAAAAAAAAAAAAAAAAAAAAAAAAAAAAAAAAAAAAAAAAAAA222222222444
AAAAAAAAAAAAAAAAAAAAAAAAAAAAAAAAAAAAAAAAAAAAAAAAAAAAA22222222244
AAAAAAAAAAAAAAAAAAAAAAAAAAAAAAAAAAAAAAAAAAAAAAAAAAAAAA2222222224
AAAAAAAAAAAAAAAAAAAAAAAAAAAAAAAAAAAAAAAAAAAAAAAAAAAAAAA222222222
AAAAAAAAAAAAAAAAAAAAAAAAAAAAAAAAAAAAAAAAAAAAAAAAAAAAAAAA22222222
AAAAAAAAAAAAAAAAAAAAAAAAAAAAAAAAAAAAAAAAAAAAAAAAAAAAAAAAA2222222
AAAAAAAAAAAAAAAAAAAAAAAAAAAAAAAAAAAAAAAAAAAAAAAAAAAAAAAAAA222222
AAAAAAAAAAAAAAAAAAAAAAAAAAAAAAAAAAAAAAAAAAAAAAAAAAAAAAAAAAA22222
AAAAAAAAAAAAAAAAAAAAAAAAAAAAAAAAAAAAAAAAAAAAAAAAAAAAAAAAAAAA2222
AAAAAAAAAAAAAAAAAAAAAAAAAAAAAAAAAAAAAAAAAAAAAAAAAAAAAAAAAAAAA222
AAAAAAAAAAAAAAAAAAAAAAAAAAAAAAAAAAAAAAAAAAAAAAAAAAAAAAAAAAAAAA22
AAAAAAAAAAAAAAAAAAAAAAAAAAAAAAAAAAAAAAAAAAAAAAAAAAAAAAAAAAAAAAA2
AAAAAAAAAAAAAAAAAAAAAAAAAAAAAAAAAAAAAAAAAAAAAAAAAAAAAAAAAAAAAAAA
AAAAAAAIAAAAAAAAAAAAAAAAAAAAAAAAAAAAAAAAAAAAAAAAAAAAAAAAAAAAAAAA
AAAAAAAIIAAAAAAAAAAAAAAAAAAAAAAAAAAAAAAAAAAAAAAAAAAAAAAAAAAAAAAA
AAAAAAAIIIAAAAAAAAAAAAAAAAAAAAAAAAAAAAAAAAAAAAAAAAAAAAAAAAAAAAAA
AAAAAAAIIIIAAAAAAAAAAAAAAAAAAAAAAAAAAAAAAAAAAAAAAAAAAAAAAAAAAAAA
AAAAAAAIIIIIAAAAAAAAAAAAAAAAAAAAAAAAAAAAAAAAAAAAAAAAAAAAAAAAAAAA
AAAAAAAIIIIIIAAAAAAAAAAAAAAAAAAAAAAAAAAAAAAAAAAAAAAAAAAAAAAAAAAA
AAAAAAAIIIIIIIAAAAAAAAAAAAAAAAAAAAAAAAAAAAAAAAAAAAAAAAAAAAAAAAAA
AAAAAAAIIIIIIIIAAAAAAAAAAAAAAAAAAAAAAAAAAAAAAAAAAAAAAAAAAAAAAAAA
AAAAAAAIIIIIIIIIAAAAAAAAAAAAAAAAAAAAAAAAAAAAAAAAAAAAAAAAAAAAAAAA
AAAAAAAIIIIIIIIIIAAAAAAAAAAAAAAAAAAAAAAAAAAAAAAAAAAAAAAAAAAAAAAA
AAAAAAAIIIIIIIIIIIAAAAAAAAAAAAAAAAAAAAAAAAAAAAAAAAAAAAAAAAAAAAAA
AAAAAAAIIIIIIIIIIIIAAAAAAAAAAAAAAAAAAAAAAAAAAAAAAAAAAAAAAAAAAAAA
AAAAAAAIIIIIIIIIIIIIAAAAAAAAAAAAAAAAAAAAAAAAAAAAAAAAAAAAAAAAAAAA
AAAAAAAIIIIIIIIIIIIIIAAAAAAAAAAAAAAAAAAAAAAAAAAAAAAAAAAAAAAAAAAA
AAAAAAAIIIIIIIIIIIIIIIAAAAAAAAAAAAAAAAAAAAAAAAAAAAAAAAAAAAAAAAAA
AAAAAAAIIIIIIIIIIIIIIIIAAAAAAAAAAAAAAAAAAAAAAAAAAAAAAAAAAAAAAAAA
AIAAAAAIIIIIIIIIIIIIIIIAAAAAAAAAAAAAAAAAAAAAAAAAAAAAAAAAAAAAAAAA
AIIAAAAIIIIIIIIIIIIIIIIAAAAAAAAAAAAAAAAAAAAAAAAAAAAAAAAAAAAAAAAA
AIIIAAAIIIIIIIIIIIIIIIIAAAAAAAAAAAAAAAAAAAAAAAAAAAAAAAAAAAAAAAAA
AIIIIAAIIIIIIIIIIIIIIIIAAAAAAAAAAAAAAAAAAAAAAAAAAAAAAAAAAAAAAAAA
AIIIIIAIIIIIIIIIIIIIIIIAAAAAAAAAAAAAAAAAAAAAAAAAAAAAAAAAAAAAAAAA
AIIIIIIIIIIIIIIIIIIIIIIAAAAAAAAAAAAAAAAAAAAAAAAAAAAAAAAAAAAAAAAA
AIIIIIIIIIIIIIIIIIIIIIIIAAAAAAAAAAAAAAAAAAAAAAAAAAAAAAAAAAAAAAAA
AIIIIIIIIIIIIIIIIIIIIIIIIAAAAAAAAAAAAAAAAAAAAAAAAAAAAAAAAAAAAAAA
AIIIIIIIIIIIIIIIIIIIIIIIIIAAAAAAAAAAAAAAAAAAAAAAAAAAAAAAAAAAAAAA
AIIIIIIIIIIIIIIIIIIIIIIIIIIAAAAAAAAAAAAAAAAAAAAAAAAAAAAAAAAAAAAA
AIIIIIIIIIIIIIIIIIIIIIIIIIIIAAAAAAAAAAAAAAAAAAAAAAAAAAAAAAAAAAAA
AIIIIIIIIIIIIIIIIIIIIIIIIIIIIAAAAAAAAAAAAAAAAAAAAAAAAAAAAAAAAAAA
AIIIIIIIIIIIIIIIIIIIIIIIIIIIIIAAAAAAAAAAAAAAAAAAAAAAAAAAAAAAAAAA
AIIIIIIIIIIIIIIIIIIIIIIIIIIIIIIAAAAAAAAAAAAAAAAAAAAAAAAAAAAAAAAA
AIIIIIIIIIIIIIIIIIIIIIIIIIIIIIIIAAAAAAAAAAAAAAAAAAAAAAAAAAAAAAAA
AIIIIIIIIIIIIIIIIIIIIIIIIIIIIIIIIAAAAAAAAAAAAAAAAAAAAAAAAAAAAAAA
AIIIIIIIIIIIIIIIIIIIIIIIIIIIIIIIIIAAAAAAAAAAAAAAAAAAAAAAAAAAAAAA
AIIIIIIIIIIIIIIIIIIIIIIIIIIIIIIIIIIAAAAAAAAAAAAAAAAAAAAAAAAAAAAA
AIIIIIIIIIIIIIIIIIIIIIIIIIIIIIIIIIIIAAAAAAAAAAAAAAAAAAAAAAAAAAAA
AIIIIIIIIIIIIIIIIIIIIIIIIIIIIIIIIIIIIAAAAAAAAAAAAAAAAAAAAAAAAAAA
AIIIIIIIIIIIIIIIIIIIIIIIIIIIIIIIIIIIIIAAAAAAAAAAAAAAAAAAAAAAAAAA
AIIIIIIIIIIIIIIIIIIIIIIIIIIIIIIIIIIIIIIAAAAAAAAAAAAAAAAAAAAAAAAA
AIIIIIIIIIIIIIIIIIIIIIIIIIIIIIIIIIIIIIIIAAAAAAAAAAAAAAAAAAAAAAAA
AIIIIIIIIIIIIIIIIIIIIIIIIIIIIIIIIIIIIIIIIAAAAAAAAAAAAAAAAAAAAAAA
AIIIIIIIIIIIIIIIIIIIIIIIIIIIIIIIIIIIIIIIIIAAAAAAAAAAAAAAAAAAAAAA
AIIIIIIIIIIIIIIIIIIIIIIIIIIIIIIIIIIIIIIIIIIAAAAAAAAAAAAAAAAAAAAA
AIIIIIIIIIIIIIIIIIIIIIIIIIIIIIIIIIIIIIIIIIIIAAAAAAAAAAAAAAAAAAAA
AIIIIIIIIIIIIIIIIIIIIIIIIIIIIIIIIIIIIIIIIIIIIAAAAAAAAAAAAAAAAAAA
AIIIIIIIIIIIIIIIIIIIIIIIIIIIIIIIIIIIIIIIIIIIIIAAAAAAAAAAAAAAAAAA
AIIIIIIIIIIIIIIIIIIIIIIIIIIIIIIIIIIIIIIIIIIIIIIAAAAAAAAAAAAAAAAA
AIIIIIIIIIIIIIIIIIIIIIIIIIIIIIIIIIIIIIIIIIIIIIIIAAAAAAAAAAAAAAAA
AIIIIIIIIIIIIIIIIIIIIIIIIIIIIIIIIIIIIIIIIIIIIIIIIAAAAAAAAAAAAAAA
AIIIIIIIIIIIIIIIIIIIIIIIIIIIIIIIIIIIIIIIIIIIIIIIIIAAAAAAAAAAAAAA
AIIIIIIIIIIIIIIIIIIIIIIIIIIIIIIIIIIIIIIIIIIIIIIIIIIAAAAAAAAAAAAA
AIIIIIIIIIIIIIIIIIIIIIIIIIIIIIIIIIIIIIIIIIIIIIIIIIIIAAAAAAAAAAAA
AIIIIIIIIIIIIIIIIIIIIIIIIIIIIIIIIIIIIIIIIIIIIIIIIIIIIAAAAAAAAAAA
AIIIIIIIIIIIIIIIIIIIIIIIIIIIIIIIIIIIIIIIIIIIIIIIIIIIIIAAAAAAAAAA
AIIIIIIIIIIIIIIIIIIIIIIIIIIIIIIIIIIIIIIIIIIIIIIIIIIIIIIAAAAAAAAA
AIIIIIIIIIIIIIIIIIIIIIIIIIIIIIIIIIIIIIIIIIIIIIIIIIIIIIIIAAAAAAAA
AIIIIIIIIIIIIIIIIIIIIIIIIIIIIIIIIIIIIIIIIIIIIIIIIIIIIIIIIAAAAAAA
AIIIIIIIIIIIIIIIIIIIIIIIIIIIIIIIIIIIIIIIIIIIIIIIIIIIIIIIIIAAAAAA
AIIIIIIIIIIIIIIIIIIIIIIIIIIIIIIIIIIIIIIIIIIIIIIIIIIIIIIIIIIAAAAA
AIIIIIIIIIIIIIIIIIIIIIIIIIIIIIIIIIIIIIIIIIIIIIIIIIIIIIIIIIIIAAAA
AIIIIIIIIIIIIIIIIIIIIIIIIIIIIIIIIIIIIIIIIIIIIIIIIIIIIIIIIIIIIAAA
AIIIIIIIIIIIIIIIIIIIIIIIIIIIIIIIIIIIIIIIIIIIIIIIIIIIIIIIIIIIIIAA
AIIIIIIIIIIIIIIIIIIIIIIIIIIIIIIIIIIIIIIIIIIIIIIIIIIIIIIIIIIIIIIA
AIIIIIIIIIIIIIIIIIIIIIIIIIIIIIIIIIIIIIIIIIIIIIIIIIIIIIIIIIIIIIII
A2IIIIIIIIIIIIIIIIIIIIIIIIIIIIIIIIIIIIIIIIIIIIIIIIIIIIIIIIIIIIII
AA22IIIIIIIIIIIIIIIIIIIIIIIIIIIIIIIIIIIIIIIIIIIIIIIIIIIIIIIIIIII
AAA2222222222222222IIIIIIIIIIIIIIIIIIIIIIIIIIIIIIIIIIIIIIIIIIIII
AAAA2222222222222222IIIIIIIIIIIIIIIIIIIIIIIIIIIIIIIIIIIIIIIIIIII
AAAAA2222222222222222IIIIIIIIIIIIIIIIIIIIIIIIIIIIIIIIIIIIIIIIIII
AAAAAA2222222222222222IIIIIIIIIIIIIIIIIIIIIIIIIIIIIIIIIIIIIIIIII
AAAAAAA2222222222222222IIIIIIIIIIIIIIIIIIIIIIIIIIIIIIIIIIIIIIIII
AAAAAAAA2222222222222222IIIIIIIIIIIIIIIIIIIIIIIIIIIIIIIIIIIIIIII
AAAAAAAAA2222222222222222IIIIIIIIIIIIIIIIIIIIIIIIIIIIIIIIIIIIIII
AAAAAAAAAA2222222222222222IIIIIIIIIIIIIIIIIIIIIIIIIIIIIIIIIIIIII
AAAAAAAAAAA2222222222222222IIIIIIIIIIIIIIIIIIIIIIIIIIIIIIIIIIIII
AAAAAAAAAAAA2222222222222222IIIIIIIIIIIIIIIIIIIIIIIIIIIIIIIIIIII
AAAAAAAAAAAAA2222222222222222IIIIIIIIIIIIIIIIIIIIIIIIIIIIIIIIIII
AAAAAAAAAAAAAA2222222222222222IIIIIIIIIIIIIIIIIIIIIIIIIIIIIIIIII
AAAAAAAAAAAAAAA2222222222222222IIIIIIIIIIIIIIIIIIIIIIIIIIIIIIIII
AAAAAAAAAAAAAAAA2222222222222222IIIIIIIIIIIIIIIIIIIIIIIIIIIIIIII
AAAAAAAAAAAAAAAAA2222222222222222IIIIIIIIIIIIIIIIIIIIIIIIIIIIIII
AAAAAAAAAAAAAAAAAA2222222222222222IIIIIIIIIIIIIIIIIIIIIIIIIIIIII
AAAAAAAAAAAAAAAAAAA2222222222222222IIIIIIIIIIIIIIIIIIIIIIIIIIIII
AAAAAAAAAAAAAAAAAAAA2222222222222222IIIIIIIIIIIIIIIIIIIIIIIIIIII
AAAAAAAAAAAAAAAAAAAAA2222222222222222IIIIIIIIIIIIIIIIIIIIIIIIIII
AAAAAAAAAAAAAAAAAAAAAA2222222222222222IIIIIIIIIIIIIIIIIIIIIIIIII
AAAAAAAAAAAAAAAAAAAAAAA2222222222222222IIIIIIIIIIIIIIIIIIIIIIIII
AAAAAAAAAAAAAAAAAAAAAAAA2222222222222222IIIIIIIIIIIIIIIIIIIIIIII
AAAAAAAAAAAAAAAAAAAAAAAAA2222222222222222IIIIIIIIIIIIIIIIIIIIIII
AAAAAAAAAAAAAAAAAAAAAAAAAA2222222222222222IIIIIIIIIIIIIIIIIIIIII
AAAAAAAAAAAAAAAAAAAAAAAAAAA2222222222222222IIIIIIIIIIIIIIIIIIIII
AAAAAAAAAAAAAAAAAAAAAAAAAAAA2222222222222222IIIIIIIIIIIIIIIIIIII
AAAAAAAAAAAAAAAAAAAAAAAAAAAAA2222222222222222IIIIIIIIIIIIIIIIIII
AAAAAAAAAAAAAAAAAAAAAAAAAAAAAA2222222222222222IIIIIIIIIIIIIIIIII
AAAAAAAAAAAAAAAAAAAAAAAAAAAAAAA2222222222222222IIIIIIIIIIIIIIIII
AAAAAAAAAAAAAAAAAAAAAAAAAAAAAAAA2222222222222222IIIIIIIIIIIIIIII
AAAAAAAAAAAAAAAAAAAAAAAAAAAAAAAAA2222222222222222IIIIIIIIIIIIIII
AAAAAAAAAAAAAAAAAAAAAAAAAAAAAAAAAA2222222222222222IIIIIIIIIIIIII
AAAAAAAAAAAAAAAAAAAAAAAAAAAAAAAAAAA2222222222222222IIIIIIIIIIIII
AAAAAAAAAAAAAAAAAAAAAAAAAAAAAAAAAAAA2222222222222222IIIIIIIIIIII
AAAAAAAAAAAAAAAAAAAAAAAAAAAAAAAAAAAAA2222222222222222IIIIIIIIIII
AAAAAAAAAAAAAAAAAAAAAAAAAAAAAAAAAAAAAA2222222222222222IIIIIIIIII
AAAAAAAAAAAAAAAAAAAAAAAAAAAAAAAAAAAAAAA2222222222222222IIIIIIIII
AAAAAAAAAAAAAAAAAAAAAAAAAAAAAAAAAAAAAAAA2222222222222222IIIIIIII
AAAAAAAAAAAAAAAAAAAAAAAAAAAAAAAAAAAAAAAAA2222222222222222IIIIIII
AAAAAAAAAAAAAAAAAAAAAAAAAAAAAAAAAAAAAAAAAA2222222222222222IIIIII
AAAAAAAAAAAAAAAAAAAAAAAAAAAAAAAAAAAAAAAAAAA2222222222222222IIIII
AAAAAAAAAAAAAAAAAAAAAAAAAAAAAAAAAAAAAAAAAAAA2222222222222222IIII
AAAAAAAAAAAAAAAAAAAAAAAAAAAAAAAAAAAAAAAAAAAAA2222222222222222III
AAAAAAAAAAAAAAAAAAAAAAAAAAAAAAAAAAAAAAAAAAAAAA2222222222222222II
AAAAAAAAAAAAAAAAAAAAAAAAAAAAAAAAAAAAAAAAAAAAAAA2222222222222222I
AAAAAAAAAAAAAAAAAAAAAAAAAAAAAAAAAAAAAAAAAAAAAAAA2222222222222222
AAAAAAAAAAAAAAAAAAAAAAAAAAAAAAAAAAAAAAAAAAAAAAAAA222222222222222
AAAAAAAAAAAAAAAAAAAAAAAAAAAAAAAAAAAAAAAAAAAAAAAAAA22222222222222
AAAAAAAAAAAAAAAAAAAAAAAAAAAAAAAAAAAAAAAAAAAAAAAAAAA2222222222222
AAAAAAAAAAAAAAAAAAAAAAAAAAAAAAAAAAAAAAAAAAAAAAAAAAAA222222222222
AAAAAAAAAAAAAAAAAAAAAAAAAAAAAAAAAAAAAAAAAAAAAAAAAAAAA22222222222
AAAAAAAAAAAAAAAAAAAAAAAAAAAAAAAAAAAAAAAAAAAAAAAAAAAAAA2222222222
AAAAAAAAAAAAAAAAAAAAAAAAAAAAAAAAAAAAAAAAAAAAAAAAAAAAAAA222222222
AAAAAAAAAAAAAAAAAAAAAAAAAAAAAAAAAAAAAAAAAAAAAAAAAAAAAAAA22222222
AAAAAAAAAAAAAAAAAAAAAAAAAAAAAAAAAAAAAAAAAAAAAAAAAAAAAAAAA2222222
AAAAAAAAAAAAAAAAAAAAAAAAAAAAAAAAAAAAAAAAAAAAAAAAAAAAAAAAAA222222
AAAAAAAAAAAAAAAAAAAAAAAAAAAAAAAAAAAAAAAAAAAAAAAAAAAAAAAAAAA22222
AAAAAAAAAAAAAAAAAAAAAAAAAAAAAAAAAAAAAAAAAAAAAAAAAAAAAAAAAAAA2222
AAAAAAAAAAAAAAAAAAAAAAAAAAAAAAAAAAAAAAAAAAAAAAAAAAAAAAAAAAAAA222
AAAAAAAAAAAAAAAAAAAAAAAAAAAAAAAAAAAAAAAAAAAAAAAAAAAAAAAAAAAAAA22
AAAAAAAAAAAAAAAAAAAAAAAAAAAAAAAAAAAAAAAAAAAAAAAAAAAAAAAAAAAAAAA2
AAAAAAAAAAAAAAAAAAAAAAAAAAAAAAAAAAAAAAAAAAAAAAAAAAAAAAAAAAAAAAAA
AAIAAAAAAAAAAAAAAAAAAAAAAAAAAAAAAAAAAAAAAAAAAAAAAAAAAAAAAAAAAAAA
AAIIAAAAAAAAAAAAAAAAAAAAAAAAAAAAAAAAAAAAAAAAAAAAAAAAAAAAAAAAAAAA
AAIIAIAAAAAAAAAAAAAAAAAAAAAAAAAAAAAAAAAAAAAAAAAAAAAAAAAAAAAAAAAA
AAIIAIIAAAAAAAAAAAAAAAAAAAAAAAAAAAAAAAAAAAAAAAAAAAAAAAAAAAAAAAAA
AAIIAIIIAAAAAAAAAAAAAAAAAAAAAAAAAAAAAAAAAAAAAAAAAAAAAAAAAAAAAAAA
AAIIAIIIIAAAAAAAAAAAAAAAAAAAAAAAAAAAAAAAAAAAAAAAAAAAAAAAAAAAAAAA
AAIIAIIIIIAAAAAAAAAAAAAAAAAAAAAAAAAAAAAAAAAAAAAAAAAAAAAAAAAAAAAA
AAIIAIIIIIIAAAAAAAAAAAAAAAAAAAAAAAAAAAAAAAAAAAAAAAAAAAAAAAAAAAAA
AAIIAIIIIIIIAAAAAAAAAAAAAAAAAAAAAAAAAAAAAAAAAAAAAAAAAAAAAAAAAAAA
AAIIAIIIIIIIIAAAAAAAAAAAAAAAAAAAAAAAAAAAAAAAAAAAAAAAAAAAAAAAAAAA
AAIIAIIIIIIIIIAAAAAAAAAAAAAAAAAAAAAAAAAAAAAAAAAAAAAAAAAAAAAAAAAA
AAIIAIIIIIIIIIIAAAAAAAAAAAAAAAAAAAAAAAAAAAAAAAAAAAAAAAAAAAAAAAAA
AAIIAIIIIIIIIIIIAAAAAAAAAAAAAAAAAAAAAAAAAAAAAAAAAAAAAAAAAAAAAAAA
AIIIAIIIIIIIIIIIAAAAAAAAAAAAAAAAAAAAAAAAAAAAAAAAAAAAAAAAAAAAAAAA
AIIIIIIIIIIIIIIIAAAAAAAAAAAAAAAAAAAAAAAAAAAAAAAAAAAAAAAAAAAAAAAA
AIIIIIIIIIIIIIIIAAAAAAAAAIAAAAAAAAAAAAAAAAAAAAAAAAAAAAAAAAAAAAAA
A222222222222244AAAAAAAAAIAAAAAAAAAAAAAAAAAAAAAAAAAAAAAAAAAAAAAA
AA22222222222224AAAAAAAAAIAAAAAAAAAAAAAAAAAAAAAAAAAAAAAAAAAAAAAA
AAA2222222222222AAAAAAAAAIAAAAAAAAAAAAAAAAAAAAAAAAAAAAAAAAAAAAAA
AAAA222222222222AAAAAAAAAIAAAAAAAAAAAAAAAAAAAAAAAAAAAAAAAAAAAAAA
AAAAA22222222222AAAAAAAAAIAAAAAAAAAAAAAAAAAAAAAAAAAAAAAAAAAAAAAA
AAAAAA2222222222AAAAAAAAAIAAAAAAAAAAAAAAAAAAAAAAAAAAAAAAAAAAAAAA
AAAAAAA222222222AAAAAAAAAIAAAAAAAAAAAAAAAAAAAAAAAAAAAAAAAAAAAAAA
AAAAAAAA22222222AAAAAAAAAIAAAAAAAAAAAAAAAAAAAAAAAAAAAAAAAAAAAAAA
AAAAAAAAA2222222AAAAAAAAAIAAAAAAAAAAAAAAAAAAAAAAAAAAAAAAAAAAAAAA
AAAAAAAAAA222222AAAAAAAAA4AAAAAAAAAAAAAAAAAAAAAAAAAAAAAAAAAAAAAA
AAAAAAAAAAA22222AAAAAAAAA4AAAAAAAAAAAAAAAAAAAAAAAAAAAAAAAAAAAAAA
AAAAAAAAAAAA2222AAAAAAAAA4AAAAAAAAAAAAAAAAAAAAAAAAAAAAAAAAAAAAAA
AAAAAAAAAAAAA222AAAAAAAAA2AAAAAAAAAAAAAAAAAAAAAAAAAAAAAAAAAAAAAA
AAAAAAAAAAAAAA22AAAAAAAAA2AAAAAAAAAAAAAAAAAAAAAAAAAAAAAAAAAAAAAA
AAAAAAAAAAAAAAA2AAAAAAAAA2AAAAAAAAAAAAAAAAAAAAAAAAAAAAAAAAAAAAAA
AAAAAAAAAAAAAAAAAAAAAAAAA2AAAAAAAAAAAAAAAAAAAAAAAAAAAAAAAAAAAAAA
AAAAAAAAAAAAAAAAAAAAAAAAAAAAAAAAAAAAAAAAAAAAAAAAAAAAAAAAAAAAAAAA
AAAAAAIAAAAAAAAAAAAAAAAAAAAAAAAAAAAAAAAAAAAAAAAAAAAAAAAAAAAAAAAA
AAAAAAIIAAAAAAAAAAAAAAAAAAAAAAAAAAAAAAAAAAAAAAAAAAAAAAAAAAAAAAAA
AAAAAAIIIAAAAAAAAAAAAAAAAAAAAAAAAAAAAAAAAAAAAAAAAAAAAAAAAAAAAAAA
AAAAAAIIIIAAAAAAAAAAAAAAAAAAAAAAAAAAAAAAAAAAAAAAAAAAAAAAAAAAAAAA
AAAAAAIIIIIAAAAAAAAAAAAAAAAAAAAAAAAAAAAAAAAAAAAAAAAAAAAAAAAAAAAA
AAAAAAIIIIIAAAAAIAAAAAAAAAAAAAAAAAAAAAAAAAAAAAAAAAAAAAAAAAAAAAAA
AAAAAAIIIIIAAAAAIIAAAAAAAAAAAAAAAAAAAAAAAAAAAAAAAAAAAAAAAAAAAAAA
AAAAAAIIIIIAAAAAIIIAAAAAAAAAAAAAAAAAAAAAAAAAAAAAAAAAAAAAAAAAAAAA
AAAAAAIIIIIAAAAAIIIIAAAAAAAAAAAAAAAAAAAAAAAAAAAAAAAAAAAAAAAAAAAA
AAAAAAIIIIIAAAAAIIIIIAAAAAAAAAAAAAAAAAAAAAAAAAAAAAAAAAAAAAAAAAAA
AAAAAAIIIIIAAAAAIIIIIIAAAAAAAAAAAAAAAAAAAAAAAAAAAAAAAAAAAAAAAAAA
AAAAAAIIIIIAAAAAIIIIIIIAAAAAAAAAAAAAAAAAAAAAAAAAAAAAAAAAAAAAAAAA
AAAAAAIIIIIAAAAAIIIIIIIIAAAAAAAAAAAAAAAAAAAAAAAAAAAAAAAAAAAAAAAA
AAAAAAIIIIIAAAAAIIIIIIIIIAAAAAAAAAAAAAAAAAAAAAAAAAAAAAAAAAAAAAAA
AAAAAAIIIIIAAAAAIIIIIIIIIIAAAAAAAAAAAAAAAAAAAAAAAAAAAAAAAAAAAAAA
AAAAAAIIIIIAAAAAIIIIIIIIIIIAAAAAAAAAAAAAAAAAAAAAAAAAAAAAAAAAAAAA
AAAAAAIIIIIAAAAAIIIIIIIIIIIIAAAAAAAAAAAAAAAAAAAAAAAAAAAAAAAAAAAA
AAAAAAIIIIIAAAAAIIIIIIIIIIIIIAAAAAAAAAAAAAAAAAAAAAAAAAAAAAAAAAAA
AAAAAAIIIIIAAAAAIIIIIIIIIIIIIIAAAAAAAAAAAAAAAAAAAAAAAAAAAAAAAAAA
AAAAAAIIIIIAAAAAIIIIIIIIIIIIIIIAAAAAAAAAAAAAAAAAAAAAAAAAAAAAAAAA
AAAAAAIIIIIAAAAAIIIIIIIIIIIIIIIIAAAAAAAAAAAAAAAAAAAAAAAAAAAAAAAA
AAAAAAIIIIIAAAAAIIIIIIIIIIIIIIIIIAAAAAAAAAAAAAAAAAAAAAAAAAAAAAAA
AAAAAAIIIIIAAAAAIIIIIIIIIIIIIIIIIIAAAAAAAAAAAAAAAAAAAAAAAAAAAAAA
AAAAAAIIIIIAAAAAIIIIIIIIIIIIIIIIIIIAAAAAAAAAAAAAAAAAAAAAAAAAAAAA
AAAAAAIIIIIAAAAAIIIIIIIIIIIIIIIIIIIIAAAAAAAAAAAAAAAAAAAAAAAAAAAA
AAAAAAIIIIIAAAAAIIIIIIIIIIIIIIIIIIIIIAAAAAAAAAAAAAAAAAAAAAAAAAAA
AAAAAAIIIIIAAAAAIIIIIIIIIIIIIIIIIIIIIIAAAAAAAAAAAAAAAAAAAAAAAAAA
AAAAAAIIIIIAAAAAIIIIIIIIIIIIIIIIIIIIIIIAAAAAAAAAAAAAAAAAAAAAAAAA
AAAAAAIIIIIAAAAAIIIIIIIIIIIIIIIIIIIIIIIIAAAAAAAAAAAAAAAAAAAAAAAA
AAAAAAIIIIIAAAAAIIIIIIIIIIIIIIIIIIIIIIIIIAAAAAAAAAAAAAAAAAAAAAAA
AAAAAAIIIIIAAAAAIIIIIIIIIIIIIIIIIIIIIIIIIAAAAAIAAAAAAAAAAAAAAAAA
AAAAAAIIIIIAAAAAIIIIIIIIIIIIIIIIIIIIIIIIIAAAAAIAAAAIAAAAAAAAAAAA
AAAAAAIIIIIAAAAAIIIIIIIIIIIIIIIIIIIIIIIIIAAAAAIAAAAIIAAAAAAAAAAA
AAAAAAIIIIIAAAAAIIIIIIIIIIIIIIIIIIIIIIIIIAAAAAIIAAAIIAAAAAAAAAAA
AAAAAAIIIIIAAAAAIIIIIIIIIIIIIIIIIIIIIIIIIAAAAAIIAAAIIIAAAAAAAAAA
AAAAAAIIIIIAAAAAIIIIIIIIIIIIIIIIIIIIIIIIIAAAAAIIIAAIIIAAAAAAAAAA
AAAAAAIIIIIAAAAAIIIIIIIIIIIIIIIIIIIIIIIIIAAAAAIIIAAIIIIAAAAAAAAA
AAAAAAIIIIIAAAAAIIIIIIIIIIIIIIIIIIIIIIIIIAAAAAIIIIAIIIIAAAAAAAAA
AAAAAAIIIIIAAAAAIIIIIIIIIIIIIIIIIIIIIIIIIAAAAAIIIIAIIIIIAAAAAAAA
AAAAAAIIIIIAAAAAIIIIIIIIIIIIIIIIIIIIIIIIIAAAAAIIIIAIIIIIIAAAAAAA
AAAAAAIIIIIAAAAAIIIIIIIIIIIIIIIIIIIIIIIIIAAAAAIIIIIIIIIIIAAAAAAA
AAAAAAIIIIIAAAAAIIIIIIIIIIIIIIIIIIIIIIIIIAAAAAIIIIIIIIIIIIAAAAAA
AAAAAAIIIIIAAAAAIIIIIIIIIIIIIIIIIIIIIIIIIAAAAAIIIIIIIIIIIIIAAAAA
AAAAAAIIIIIAAAAAIIIIIIIIIIIIIIIIIIIIIIIIIAAAAAIIIIIIIIIIIIIIAAAA
AAAAAAIIIIIAAAAAIIIIIIIIIIIIIIIIIIIIIIIIIAAAAAIIIIIIIIIIIIIIIAAA
AAAAAAIIIIIAAAAAIIIIIIIIIIIIIIIIIIIIIIIIIAAAAAIIIIIIIIIIIIIIIIAA
AAAAAAIIIIIAAAAAIIIIIIIIIIIIIIIIIIIIIIIIIAAAAAIIIIIIIIIIIIIIIIIA
AAAAAAIIIIIAAAAAIIIIIIIIIIIIIIIIIIIIIIIIIAAAAAIIIIIIIIIIIIIIIIII
AAAAAAIIIIIIAAAAIIIIIIIIIIIIIIIIIIIIIIIIIAAAAAIIIIIIIIIIIIIIIIII
AAAAAAIIIIIIIAAAIIIIIIIIIIIIIIIIIIIIIIIIIAAAAAIIIIIIIIIIIIIIIIII
AAAAAAIIIIIIIIAAIIIIIIIIIIIIIIIIIIIIIIIIIAAAAAIIIIIIIIIIIIIIIIII
AAAAAAIIIIIIIIIAIIIIIIIIIIIIIIIIIIIIIIIIIAAAAAIIIIIIIIIIIIIIIIII
AAAAAAIIIIIIIIIIIIIIIIIIIIIIIIIIIIIIIIIIIAAAAAIIIIIIIIIIIIIIIIII
AAAAAAIII2IIIIIIIIIIIIIII4IIII4IIIIIIIIIIAAAAA4IIIIIIIIIIIIIIIII
AAAAAAIII2IIIIIAIIII2IIII4IIII4IIIII4IIIIAAAAA4IIIII4IIII4IIIIII
AAAAAAIII2IIIIIAIIIIAIIII2IIII4IIIII4IIIIAAAAA4IIIII4IIII4IIII4I
AAAAAAIII2IIIIIAIIIIAIIIIAIIII2IIIII4IIIIAAAAA4IIII44IIII4IIII4I
AAAAAAIII2AIIIIAIIIIAIIIIAIIII24IIII4IIIIAAAAA44III44IIII4IIII4I
AAAAAAIII2AIIIIAIIIIAIIIIAIIII2AIIII2IIIIAAAAA44III44IIII4IIII4I
AAAAAAIII2AIIIIAIIIIAIIIIAIIII2AIIIIAIIIIAAAAA44III44IIII4IIII4I
AAAAAAIII2AIIIIAIIIIAIIIIAIIII2AIIIIAIIIIAAAAA24III44IIII4IIII4I
AAAAAAIII2AIIIIAIIIIAIIIIAIIII2AIIIIAIIIIAAAAAA4III24IIII4IIII4I
AAAAAAIII2AIIIIAIIIIAIIIIAIIII2AIIIIAIIIIAAAAAA4III2AIIII2IIII4I
AAAAAAIII2AIIIIAIIIIAIIIIAIIII2AIIIIAIIIIAAAAAA4III2AIIIIAIIII2I
AAAAAAIII2AIIIIAIIIIAIIIIAIIII2AIIIIAIIIIAAAAAA4III2AIIIIAIIIIAI
AAAAAAIII2IIIIIAIIIIAIIIIAIIII2AIIIIAIIIIAAAAAA4III2AIIIIAIIIIAI
AAAAAAII42IIII4AIIIIAIII4AIIII2AIIIIAIIIIAAAAAA4III2AIIIIAIIIIAI
AAAAAAII4AIII42AIII4AIII4AIII42AIIIIAIIIIAAAAAA4III2AIIIIAIIIIAI
AAAAAAII4AIII4AAII42AIII4AIII42AII44AIIIIAAAAAA4III2AIIIIAIIIIAI
AAAAAAII4AIII4AAII4AAII42AIII42AII44AII44AAAAAA4III2AIIIIAIIIIAI
AAAAAAII4AIII4AAII4AAII42AIII4AAII42AII44AAAAAA4II42AIIIIAIIIIAI
AAAAAAII4AIII4AAII4AAII42AIII4AAII4AAII42AAAAAA4II42AII44AIIIIAI
AAAAAAII4AIII4AAII4AAII42AIII4AAII4AAII4AAAAAAA4II42AII44AII44AI
AAAAAAII4AIII4AAII4AAII42AIII4AAII4AAII4AAAAAAA4II4AAII42AII44AI
AAAAAAII4AIII4AAII4AAII42AIII4AAII4AAII4AAAAAAA4II4AAII4AAII42AI
AAAAAAII4AIII4AAII4AAII42AIII4AAII4AAII4AAAAAAA4II4AAII4AAII4AAI
AAAAAAII4AIII4AAII4AAII42AIII4AAII4AAII4AAAAAAI4II4AAII4AAII4AAI
AAAAAAII4AIII4AAII4AAII42AIII4AAII4AAII4AAAAAAI4II4IAII4AAII4AAI
AAAAAAII4IIII4AAII4AAII42AIII4AAII4AAII4AAAAAAI4II4IAII4AAII4AAI
AAAAAAII4IIII4AAII4AAII42AIII4IAII4AAII4AAAAAAI4II4IAII4AAII4AAI
AAAAAAII4IIII4IAII4AAII42AIII4IAII4AAII4AAAAAAI4II4IAII4AAII4AAI
AAAAAA222222444AII4AA4442AIII4IAII4AAII4AAAAAAI4II4IAII4AAII4AAI
AAAAAA222222244AII4AA4442AIII4IAII4AAII4AAAAAAI4II4IAII4AAII4AAI
AAAAAA222222224A4I4AA4442AIII4IAII4AAII4AAAAAAI4II4IAII4AAII4AAI
AAAAAA222222222A444AA4442AIII4IAII4AAII4AAAAAAI4II4IAII4AAII4AAI
AAAAAA222222222A444AA4442A4II4IAII4AAII4AAAAAAI4II4IAII4AAII4AAI
AAAAAA222222222A244AA4442A44I4IAII4AAII4AAAAAAI4II4IAII4AAII4AAI
AAAAAAA22222222A224AA4442A4444IAII4AAII4AAAAAAI4II4IAII4AAII4AAI
AAAAAAAA2222222A222AA4442A4444IAII4AAII4AAAAAAI4II4IAII4AAII4AAI
AAAAAAAAA222222A222AA4442A44444AII4AAII4AAAAAAI4II4IAII4AAII4AAI
AAAAAAAAAA22222A222AA4442A44444AII4AAII4AAAAAAI4II4IAII4AAII4AAI
AAAAAAAAAAA2222A222AA2442A44444A4I4AAII4AAAAAAI4II4IAII4AAII4AAI
AAAAAAAAAAAA222A222AA2242A44444A444AAII4AAAAAAI4II4IAII4AAII4AAI
AAAAAAAAAAAAA22A222AA2222A44444A444AAII4AAAAAAI4II4IAII4AAII4AAI
AAAAAAAAAAAAAA2A222AA2222A44444A444AAII4AAAAAAI4II4IAII4AAII4AAI
AAAAAAAAAAAAAAAA222AA2222A44444A444AAII4AAAAAAI4II4IAII4AAII4AAI
AAAAAAAAAAAAAAAA222AA2222A24444A444AA4I4AAAAAAI4II4IAII4AAII4AAI
AAAAAAAAAAAAAAAAA22AA2222A22444A444AA444AAAAAAI4II4IAII4AAII4AAI
AAAAAAAAAAAAAAAAAA2AA2222A22244A444AA444AAAAAAI4II4IAII4AAII4AAI
AAAAAAAAAAAAAAAAAAAAA2222A22224A444AA444AAAAAAI4II4IAII4AAII4AAI
AAAAAAAAAAAAAAAAAAAAA2222A22222A444AA444AAAAAAI4II4IAII4AAII4AAI
AAAAAAAAAAAAAAAAAAAAAA222A22222A244AA444AAAAAAI4II4IAII4AAII4AAI
AAAAAAAAAAAAAAAAAAAAAAA22A22222A224AA444AAAAAAI4II4IAII4AAII4AAI
AAAAAAAAAAAAAAAAAAAAAAAA2A22222A222AA444AAAAAAI4II4IAII4AAII4AAI
AAAAAAAAAAAAAAAAAAAAAAAAAA22222A222AA444AAAAAA44II4IAII4AAII4AAI
AAAAAAAAAAAAAAAAAAAAAAAAAAA2222A222AA244AAAAAA444I4IAII4AAII4AAI
AAAAAAAAAAAAAAAAAAAAAAAAAAAA222A222AA224AAAAAA44444IAII4AAII4AAI
AAAAAAAAAAAAAAAAAAAAAAAAAAAAA22A222AA222AAAAAA44444IAII4AAII4AAI
AAAAAAAAAAAAAAAAAAAAAAAAAAAAAA2A222AA222AAAAAA444444AII4AAII4AAI
AAAAAAAAAAAAAAAAAAAAAAAAAAAAAAAA222AA222AAAAAA444444AII4AAII4AAI
AAAAAAAAAAAAAAAAAAAAAAAAAAAAAAAA222AA222AAAAAA444444A4I4AAII4AAI
AAAAAAAAAAAAAAAAAAAAAAAAAAAAAAAAA22AA222AAAAAA444444A444AAII4AAI
AAAAAAAAAAAAAAAAAAAAAAAAAAAAAAAAAA2AA222AAAAAA444444A444AAII4AAI
AAAAAAAAAAAAAAAAAAAAAAAAAAAAAAAAAAAAA222AAAAAA444444A444AAII4AAI
AAAAAAAAAAAAAAAAAAAAAAAAAAAAAAAAAAAAA222AAAAAA244444A444AAII4AAI
AAAAAAAAAAAAAAAAAAAAAAAAAAAAAAAAAAAAA222AAAAAA224444A444AA4I4AAI
AAAAAAAAAAAAAAAAAAAAAAAAAAAAAAAAAAAAAA22AAAAAA222444A444AA444AAI
AAAAAAAAAAAAAAAAAAAAAAAAAAAAAAAAAAAAAAA2AAAAAA222244A444AA444AAI
AAAAAAAAAAAAAAAAAAAAAAAAAAAAAAAAAAAAAAAAAAAAAA222224A444AA444AAI
AAAAAAAAAAAAAAAAAAAAAAAAAAAAAAAAAAAAAAAAAAAAAA222222A444AA444AAI
AAAAAAAAAAAAAAAAAAAAAAAAAAAAAAAAAAAAAAAAAAAAAA222222A444AA444AA4
AAAAAAAAAAAAAAAAAAAAAAAAAAAAAAAAAAAAAAAAAAAAAA222222A244AA444AA4
AAAAAAAAAAAAAAAAAAAAAAAAAAAAAAAAAAAAAAAAAAAAAA222222A224AA444AA4
AAAAAAAAAAAAAAAAAAAAAAAAAAAAAAAAAAAAAAAAAAAAAA222222A222AA444AA4
AAAAAAAAAAAAAAAAAAAAAAAAAAAAAAAAAAAAAAAAAAAAAAA22222A222AA444AA4
AAAAAAAAAAAAAAAAAAAAAAAAAAAAAAAAAAAAAAAAAAAAAAAA2222A222AA244AA4
AAAAAAAAAAAAAAAAAAAAAAAAAAAAAAAAAAAAAAAAAAAAAAAAA222A222AA224AA4
AAAAAAAAAAAAAAAAAAAAAAAAAAAAAAAAAAAAAAAAAAAAAAAAAA22A222AA222AA4
AAAAAAAAAAAAAAAAAAAAAAAAAAAAAAAAAAAAAAAAAAAAAAAAAAA2A222AA222AA4
AAAAAAAAAAAAAAAAAAAAAAAAAAAAAAAAAAAAAAAAAAAAAAAAAAAAA222AA222AA4
AAAAAAAAAAAAAAAAAAAAAAAAAAAAAAAAAAAAAAAAAAAAAAAAAAAAA222AA222AA2
AAAAAAAAAAAAAAAAAAAAAAAAAAAAAAAAAAAAAAAAAAAAAAAAAAAAAA22AA222AA2
AAAAAAAAAAAAAAAAAAAAAAAAAAAAAAAAAAAAAAAAAAAAAAAAAAAAAAA2AA222AA2
AAAAAAAAAAAAAAAAAAAAAAAAAAAAAAAAAAAAAAAAAAAAAAAAAAAAAAAAAA222AA2
AAAAAAAAAAAAAAAAAAAAAAAAAAAAAAAAAAAAAAAAAAAAAAAAAAAAAAAAAAA22AA2
AAAAAAAAAAAAAAAAAAAAAAAAAAAAAAAAAAAAAAAAAAAAAAAAAAAAAAAAAAAA2AA2
AAAAAAAAAAAAAAAAAAAAAAAAAAAAAAAAAAAAAAAAAAAAAAAAAAAAAAAAAAAAAAA2
AAAAAAAAAAAAAAAAAAAAAAAAAAAAAAAAAAAAAAAAAAAAAAAAAAAAAAAAAAAAAAAA
AAAAAAAIAAAAAAAAAAAAAAAAAAAAAAAAAAAAAAAAAAAAAAAAAAAAAAAAAAAAAAAA
AIAAAAAIAAAAAAAAAAAAAAAAAAAAAAAAAAAAAAAAAAAAAAAAAAAAAAAAAAAAAAAA
AIIAAAAIAAAAAAAAAAAAAAAAAAAAAAAAAAAAAAAAAAAAAAAAAAAAAAAAAAAAAAAA
AIIIAAAIAAAAAAAAAAAAAAAAAAAAAAAAAAAAAAAAAAAAAAAAAAAAAAAAAAAAAAAA
AIIIIAAIAAAAAAAAAAAAAAAAAAAAAAAAAAAAAAAAAAAAAAAAAAAAAAAAAAAAAAAA
AIIIIAAIAIAAAAAAAAAAAAAAAAAAAAAAAAAAAAAAAAAAAAAAAAAAAAAAAAAAAAAA
AIIIIIAIAIAAAAAAAAAAAAAAAAAAAAAAAAAAAAAAAAAAAAAAAAAAAAAAAAAAAAAA
AIIIIIIIAIAAAAAAAAAAAAAAAAAAAAAAAAAAAAAAAAAAAAAAAAAAAAAAAAAAAAAA
AIIIIIIIIIAAAAAAAAAAAAAAAAAAAAAAAAAAAAAAAAAAAAAAAAAAAAAAAAAAAAAA
AIIIIIIIIIIAAAAAAAAAAAAAAAAAAAAAAAAAAAAAAAAAAAAAAAAAAAAAAAAAAAAA
AIIIIIIIIIIAAAAAIAAAAAAAAAAAAAAAAAAAAAAAAAAAAAAAAAAAAAAAAAAAAAAA
AIIIIIIIIIIAAAAAIAAAAAAIAAAAAAAAAAAAAAAAAAAAAAAAAAAAAAAAAAAAAAAA
AIIIIIIIIIIAAAAAIAAAAAAIIAAAAAAAAAAAAAAAAAAAAAAAAAAAAAAAAAAAAAAA
AIIIIIIIIIIAAAAAIAAAAAAIIIAAAAAAAAAAAAAAAAAAAAAAAAAAAAAAAAAAAAAA
AIIIIIIIIIIAAAAAIAAAAAAIIIIAAAAAAAAAAAAAAAAAAAAAAAAAAAAAAAAAAAAA
AIIIIIIIIIIAAAAAIAAAAAAIIIIIAAAAAAAAAAAAAAAAAAAAAAAAAAAAAAAAAAAA
AIIIIIIIIIIAAAAAIAAAAAAIIIIIIAAAAAAAAAAAAAAAAAAAAAAAAAAAAAAAAAAA
AIIIIIIIIIIAAAAAIAAAAAAIIIIIIIAAAAAAAAAAAAAAAAAAAAAAAAAAAAAAAAAA
AIIIIIIIIIIAAAAAIAAAAAAIIIIIIIAAAIAAAAAAAAAAAAAAAAAAAAAAAAAAAAAA
AIIIIIIIIIIIAAAAIAAAAAAIIIIIIIAAAIAAAAAAAAAAAAAAAAAAAAAAAAAAAAAA
AIIIIIIIIIIIAAAIIAAAAAAIIIIIIIAAAIAAAAAAAAAAAAAAAAAAAAAAAAAAAAAA
AIIIIIIIIIIIAAIIIAAAAAAIIIIIIIAAAIAAAAAAAAAAAAAAAAAAAAAAAAAAAAAA
AIIIIIIIIIIIAAIIIAAAAAAIIIIIIIIAAIAAAAAAAAAAAAAAAAAAAAAAAAAAAAAA
AIIIIIIIIIIIAAIIIAAAAAAIIIIIIIIIAIAAAAAAAAAAAAAAAAAAAAAAAAAAAAAA
AIIIIIIIIIIIAAIIIAAAAAAIIIIIIIIIIIAAAAAAAAAAAAAAAAAAAAAAAAAAAAAA
AIIIIIIIIIIIAAIIIAAAAAAIIIIIIIIIIIAIAAAAAAAAAAAAAAAAAAAAAAAAAAAA
AIIIIIIIIIIIAAIIIAAAAAAIIIIIIIIIIIAIIAAAAAAAAAAAAAAAAAAAAAAAAAAA
AIIIIIIIIIIIAAIIIAAAAAAIIIIIIIIIIIAIIIAAAAAAAAAAAAAAAAAAAAAAAAAA
AIIIIIIIIIIIAAIIIAAAAAAIIIIIIIIIIIAIIIAAIAAAAAAAAAAAAAAAAAAAAAAA
AIIIIIIIIIIIAAIIIAAAAAAIIIIIIIIIIIAIIIAAIIAAAAAAAAAAAAAAAAAAAAAA
AIIIIIIIIIIIAAIIIAAAAAAIIIIIIIIIIIAIIIAAIIIAAAAAAAAAAAAAAAAAAAAA
AIIIIIIIIIIIAAIIIAAAAAAIIIIIIIIIIIAIIIAAIIIIAAAAAAAAAAAAAAAAAAAA
AIIIIIIIIIIIAAIIIAAAAAAIIIIIIIIIIIAIIIAAIIIIAAIAAAAAAAAAAAAAAAAA
AIIIIIIIIIIIAAIIIAAAAAAIIIIIIIIIIIAIIIAAIIIIAAIIAAAAAAAAAAAAAAAA
AIIIIIIIIIIIAAIIIAAAAAAIIIIIIIIIIIAIIIAAIIIIAAIIIAAAAAAAAAAAAAAA
AIIIIIIIIIIIAAIIIAAAAAAIIIIIIIIIIIAIIIAAIIIIAAIIIAAAAAAAIAAAAAAA
AIIIIIIIIIIIAAIIIAAAAAAIIIIIIIIIIIAIIIAAIIIIAAIIIAAAAAAAIIAAAAAA
AIIIIIIIIIIIAAIIIAAAAAAIIIIIIIIIIIAIIIAAIIIIAAIIIAAAAAAAIIIAAAAA
AIIIIIIIIIIIAAIIIAAAAAAIIIIIIIIIIIAIIIAAIIIIAAIIIAAAAAAAIIIIAAAA
AIIIIIIIIIIIAAIIIAAAAAAIIIIIIIIIIIAIIIAAIIIIAAIIIAAAAAAAIIIIIAAA
AIIIIIIIIIIIAAIIIAAAAAAIIIIIIIIIIIAIIIAAIIIIAAIIIAAAAAAAIIIIIIAA
AIIIIIIIIIIIAAIIIAAAAAAIIIIIIIIIIIAIIIAAIIIIAAIIIAAAAAAAIIIIIIIA
AIIIIIIIIIIIAAIIIAAAAAAIIIIIIIIIIIAIIIAAIIIIAAIIIAAAAAAAIIIIIIII
AIIIIIIIIIIIAAIIIAAAAAAIIIIIIIIIIIIIIIAAIIIIAAIIIAAAAAAAIIIIIIII
A22222222224AA444AAAAAAIIIIIIIIIIIIIIIAAIIIIAAIIIAAAAAAAIIIIIIII
AA2222222222AA444AAAAAAIIIIIIIIIIIIIIIAAIIIIAAIIIAAAAAAAIIIIIIII
AAA222222222AA444AAAAAA4IIIIIIIIIIIIIIAAIIIIAAIIIAAAAAAAIIIIIIII
AAAA22222222AA444AAAAAA44IIIIIIIIIIIIIAAIIIIAAIIIAAAAAAAIIIIIIII
AAAAA2222222AA244AAAAAA444IIIIIIIIIIIIAAIIIIAAIIIAAAAAAAIIIIIIII
AAAAAA222222AA224AAAAAA4444IIIIIIIIIIIAAIIIIAAIIIAAAAAAAIIIIIIII
AAAAAAA22222AA222AAAAAA44444IIIIIIIIIIAAIIIIAAIIIAAAAAAAIIIIIIII
AAAAAAAA2222AA222AAAAAA444444IIIIIIIIIAAIIIIAAIIIAAAAAAAIIIIIIII
AAAAAAAAA222AA222AAAAAA4444444IIIIIIIIAAIIIIAAIIIAAAAAAAIIIIIIII
AAAAAAAAAA22AA222AAAAAA44444444IIIIIIIAAIIIIAAIIIAAAAAAAIIIIIIII
AAAAAAAAAAA2AA222AAAAAA444444444IIIIIIAAIIIIAAIIIAAAAAAAIIIIIIII
AAAAAAAAAAAAAA222AAAAAA4444444444IIIIIAAIIIIAAIIIAAAAAAAIIIIIIII
AAAAAAAAAAAAAA222AAAAAA44444444444IIIIAAIIIIAAIIIAAAAAAAIIIIIIII
AAAAAAAAAAAAAA222AAAAAA244444444444IIIAAIIIIAAIIIAAAAAAAIIIIIIII
AAAAAAAAAAAAAAA22AAAAAA2244444444444IIAAIIIIAAIIIAAAAAAAIIIIIIII
AAAAAAAAAAAAAAAA2AAAAAA22244444444444IAAIIIIAAIIIAAAAAAAIIIIIIII
AAAAAAAAAAAAAAAAAAAAAAA222244444444444AAIIIIAAIIIAAAAAAAIIIIIIII
AAAAAAAAAAAAAAAAAAAAAAA222224444444444AAIIIIAAIIIAAAAAAAIIIIIIII
AAAAAAAAAAAAAAAAAAAAAAA222222444444444AAIIIIAAIIIAAAAAAAIIIIIIII
AAAAAAAAAAAAAAAAAAAAAAA222222244444444AA4IIIAAIIIAAAAAAAIIIIIIII
AAAAAAAAAAAAAAAAAAAAAAA222222224444444AA44IIAAIIIAAAAAAAIIIIIIII
AAAAAAAAAAAAAAAAAAAAAAA222222222444444AA444IAAIIIAAAAAAAIIIIIIII
AAAAAAAAAAAAAAAAAAAAAAA222222222244444AA4444AAIIIAAAAAAAIIIIIIII
AAAAAAAAAAAAAAAAAAAAAAAA22222222224444AA4444AAIIIAAAAAAAIIIIIIII
AAAAAAAAAAAAAAAAAAAAAAAAA2222222222444AA4444AAIIIAAAAAAAIIIIIIII
AAAAAAAAAAAAAAAAAAAAAAAAAA222222222244AA4444AA4IIAAAAAAAIIIIIIII
AAAAAAAAAAAAAAAAAAAAAAAAAAA22222222224AA4444AA44IAAAAAAAIIIIIIII
AAAAAAAAAAAAAAAAAAAAAAAAAAAA2222222222AA4444AA444AAAAAAAIIIIIIII
AAAAAAAAAAAAAAAAAAAAAAAAAAAAA222222222AA4444AA444AAAAAAAIIIIIIII
AAAAAAAAAAAAAAAAAAAAAAAAAAAAAA22222222AA4444AA444AAAAAAAIIIIIIII
AAAAAAAAAAAAAAAAAAAAAAAAAAAAAAA2222222AA2444AA444AAAAAAAIIIIIIII
AAAAAAAAAAAAAAAAAAAAAAAAAAAAAAAA222222AA2244AA444AAAAAAAIIIIIIII
AAAAAAAAAAAAAAAAAAAAAAAAAAAAAAAAA22222AA2224AA444AAAAAAAIIIIIIII
AAAAAAAAAAAAAAAAAAAAAAAAAAAAAAAAAA2222AA2222AA444AAAAAAAIIIIIIII
AAAAAAAAAAAAAAAAAAAAAAAAAAAAAAAAAAA222AA2222AA444AAAAAAAIIIIIIII
AAAAAAAAAAAAAAAAAAAAAAAAAAAAAAAAAAAA22AA2222AA444AAAAAAA4IIIIIII
AAAAAAAAAAAAAAAAAAAAAAAAAAAAAAAAAAAAA2AA2222AA244AAAAAAA44IIIIII
AAAAAAAAAAAAAAAAAAAAAAAAAAAAAAAAAAAAAAAA2222AA224AAAAAAA444IIIII
AAAAAAAAAAAAAAAAAAAAAAAAAAAAAAAAAAAAAAAA2222AA222AAAAAAA4444IIII
AAAAAAAAAAAAAAAAAAAAAAAAAAAAAAAAAAAAAAAA2222AA222AAAAAAA44444III
AAAAAAAAAAAAAAAAAAAAAAAAAAAAAAAAAAAAAAAAA222AA222AAAAAAA444444II
AAAAAAAAAAAAAAAAAAAAAAAAAAAAAAAAAAAAAAAAAA22AA222AAAAAAA4444444I
AAAAAAAAAAAAAAAAAAAAAAAAAAAAAAAAAAAAAAAAAAA2AA222AAAAAAA44444444
AAAAAAAAAAAAAAAAAAAAAAAAAAAAAAAAAAAAAAAAAAAAAA222AAAAAAA44444444
AAAAAAAAAAAAAAAAAAAAAAAAAAAAAAAAAAAAAAAAAAAAAAA22AAAAAAA44444444
AAAAAAAAAAAAAAAAAAAAAAAAAAAAAAAAAAAAAAAAAAAAAAAA2AAAAAAA24444444
AAAAAAAAAAAAAAAAAAAAAAAAAAAAAAAAAAAAAAAAAAAAAAAAAAAAAAAA22444444
AAAAAAAAAAAAAAAAAAAAAAAAAAAAAAAAAAAAAAAAAAAAAAAAAAAAAAAA22244444
AAAAAAAAAAAAAAAAAAAAAAAAAAAAAAAAAAAAAAAAAAAAAAAAAAAAAAAA22224444
AAAAAAAAAAAAAAAAAAAAAAAAAAAAAAAAAAAAAAAAAAAAAAAAAAAAAAAA22222444
AAAAAAAAAAAAAAAAAAAAAAAAAAAAAAAAAAAAAAAAAAAAAAAAAAAAAAAA22222244
AAAAAAAAAAAAAAAAAAAAAAAAAAAAAAAAAAAAAAAAAAAAAAAAAAAAAAAA22222224
AAAAAAAAAAAAAAAAAAAAAAAAAAAAAAAAAAAAAAAAAAAAAAAAAAAAAAAA22222222
AAAAAAAAAAAAAAAAAAAAAAAAAAAAAAAAAAAAAAAAAAAAAAAAAAAAAAAAA2222222
AAAAAAAAAAAAAAAAAAAAAAAAAAAAAAAAAAAAAAAAAAAAAAAAAAAAAAAAAA222222
AAAAAAAAAAAAAAAAAAAAAAAAAAAAAAAAAAAAAAAAAAAAAAAAAAAAAAAAAAA22222
AAAAAAAAAAAAAAAAAAAAAAAAAAAAAAAAAAAAAAAAAAAAAAAAAAAAAAAAAAAA2222
AAAAAAAAAAAAAAAAAAAAAAAAAAAAAAAAAAAAAAAAAAAAAAAAAAAAAAAAAAAAA222
AAAAAAAAAAAAAAAAAAAAAAAAAAAAAAAAAAAAAAAAAAAAAAAAAAAAAAAAAAAAAA22
AAAAAAAAAAAAAAAAAAAAAAAAAAAAAAAAAAAAAAAAAAAAAAAAAAAAAAAAAAAAAAA2
AAAAAAAAAAAAAAAAAAAAAAAAAAAAAAAAAAAAAAAAAAAAAAAAAAAAAAAAAAAAAAAA
AAAAAAIAAAAAAAAAAAAAAAAAAAAAAAAAAAAAAAAAAAAAAAAAAAAAAAAAAAAAAAAA
AAAAAAIIAAAAAAAAAAAAAAAAAAAAAAAAAAAAAAAAAAAAAAAAAAAAAAAAAAAAAAAA
AAAIAAIIAAAAAAAAAAAAAAAAAAAAAAAAAAAAAAAAAAAAAAAAAAAAAAAAAAAAAAAA
AAAIIAIIAAAAAAAAAAAAAAAAAAAAAAAAAAAAAAAAAAAAAAAAAAAAAAAAAAAAAAAA
AAAIIIIIAAAAAAAAAAAAAAAAAAAAAAAAAAAAAAAAAAAAAAAAAAAAAAAAAAAAAAAA
AAAIIIIIIAAAAAAAAAAAAAAAAAAAAAAAAAAAAAAAAAAAAAAAAAAAAAAAAAAAAAAA
AAAIIIIIIIAAAAAAAAAAAAAAAAAAAAAAAAAAAAAAAAAAAAAAAAAAAAAAAAAAAAAA
AAAIIIIIIIIAAAAAAAAAAAAAAAAAAAAAAAAAAAAAAAAAAAAAAAAAAAAAAAAAAAAA
AAAIIIIIIIIAAAAAIAAAAAAAAAAAAAAAAAAAAAAAAAAAAAAAAAAAAAAAAAAAAAAA
AAAIIIIIIIIAAAAAIIAAAAAAAAAAAAAAAAAAAAAAAAAAAAAAAAAAAAAAAAAAAAAA
AAAIIIIIIIIAAAAAIIIAAAAAAAAAAAAAAAAAAAAAAAAAAAAAAAAAAAAAAAAAAAAA
AAAIIIIIIIIAAAAAIIIAAAAAAAAAAIAAAAAAAAAAAAAAAAAAAAAAAAAAAAAAAAAA
AAAIIIIIIIIAAAAAIIIAAAAAAAAAAIIAAAAAAAAAAAAAAAAAAAAAAAAAAAAAAAAA
AAAIIIIIIIIAAAAAIIIAAAAAAAAAAIIIAAAAAAAAAAAAAAAAAAAAAAAAAAAAAAAA
AAAIIIIIIIIAAAAAIIIAAAAAAAAAAIIIIAAAAAAAAAAAAAAAAAAAAAAAAAAAAAAA
AAAIIIIIIIIAAAAAIIIAAAAAAAAAIIIIIAAAAAAAAAAAAAAAAAAAAAAAAAAAAAAA
AAAIIIIIIIIAAAAAIIIAAAAAAAAAIIIIIIAAAAAAAAAAAAAAAAAAAAAAAAAAAAAA
AAAIIIIIIIIIAAAAIIIAAAAAAAAAIIIIIIAAAAAAAAAAAAAAAAAAAAAAAAAAAAAA
AAAIIIIIIIIIIAAAIIIAAAAAAAAAIIIIIIAAAAAAAAAAAAAAAAAAAAAAAAAAAAAA
AAAIIIIIIIIIIIAAIIIAAAAAAAAAIIIIIIAAAAAAAAAAAAAAAAAAAAAAAAAAAAAA
AAAIIIIIIIIIIIIAIIIAAAAAAAAAIIIIIIAAAAAAAAAAAAAAAAAAAAAAAAAAAAAA
AAAIIIIIIIIIIIIIIIIAAAAAAAAAIIIIIIAAAAAAAAAAAAAAAAAAAAAAAAAAAAAA
AAAIIIIIIIIIIIIIIIIIAAAAAAAAIIIIIIAAAAAAAAAAAAAAAAAAAAAAAAAAAAAA
AAAIIIIIIIIIIIIIIIIIIAAAAAAAIIIIIIAAAAAAAAAAAAAAAAAAAAAAAAAAAAAA
AAAIIIIIIIIIIIIIIIIIIIAAAAAAIIIIIIAAAAAAAAAAAAAAAAAAAAAAAAAAAAAA
AAAIIIIIIIIIIIIIIIIIIIIAAAAAIIIIIIAAAAAAAAAAAAAAAAAAAAAAAAAAAAAA
AAAIIIIIIIIIIIIIIIIIIIIIAAAAIIIIIIAAAAAAAAAAAAAAAAAAAAAAAAAAAAAA
AAAIIIIIIIIIIIIIIIIIIIIIIAAAIIIIIIAAAAAAAAAAAAAAAAAAAAAAAAAAAAAA
AAAIIIIIIIIIIIIIIIIIIIIIIIAAIIIIIIAAAAAAAAAAAAAAAAAAAAAAAAAAAAAA
AAAIIIIIIIIIIIIIIIIIIIIIIIIAIIIIIIAAAAAAAAAAAAAAAAAAAAAAAAAAAAAA
AAAIIIIIIIIIIIIIIIIIIIIIIIIIIIIIIIAAAAAAAAAAAAAAAAAAAAAAAAAAAAAA
AAAIIIIIIIIIIIIIIIIIIIIIIIIIIIIIIIAAAAAAAAAAAAAIAAAAAAAAAAAAAAAA
AAAIIIIIIIIIIIIIIIIIIIIIIIIIIIIIIIAAAAAAAAAAAAAIIAAAAAAAAAAAAAAA
AAAIIIIIIIIIIIIIIIIIIIIIIIIIIIIIIIAIAAAAAAAAAAAIIAAAAAAAAAAAAAAA
AAAIIIIIIIIIIIIIIIIIIIIIIIIIIIIIIIAIIAAAAAAAAAAIIAAAAAAAAAAAAAAA
AAAIIIIIIIIIIIIIIIIIIIIIIIIIIIIIIIAIIIAAAAAAAAAIIAAAAAAAAAAAAAAA
AAAIIIIIIIIIIIIIIIIIIIIIIIIIIIIIIIAIIIIAAAAAAAAIIAAAAAAAAAAAAAAA
AAAIIIIIIIIIIIIIIIIIIIIIIIIIIIIIIIAIIIIIAAAAAAAIIAAAAAAAAAAAAAAA
AAAIIIIIIIIIIIIIIIIIIIIIIIIIIIIIIIAIIIIIIAAAAAAIIAAAAAAAAAAAAAAA
AAAIIIIIIIIIIIIIIIIIIIIIIIIIIIIIIIAIIIIIIIAAAAAIIAAAAAAAAAAAAAAA
AAAIIIIIIIIIIIIIIIIIIIIIIIIIIIIIIIAIIIIIIIIAAAAIIAAAAAAAAAAAAAAA
AAAIIIIIIIIIIIIIIIIIIIIIIIIIIIIIIIAIIIIIIIIAAAAIIIAAAAAAAAAAAAAA
AAAIIIIIIIIIIIIIIIIIIIIIIIIIIIIIIIAIIIIIIIIAAAAIIIIAAAAAAAAAAAAA
AAAIIIIIIIIIIIIIIIIIIIIIIIIIIIIIIIAIIIIIIIIAAAAIIIIIAAAAAAAAAAAA
AAAIIIIIIIIIIIIIIIIIIIIIIIIIIIIIIIAIIIIIIIIAAAAIIIIIIAAAAAAAAAAA
AAAIIIIIIIIIIIIIIIIIIIIIIIIIIIIIIIAIIIIIIIIAAAAIIIIIIIAAAAAAAAAA
AAAIIIIIIIIIIIIIIIIIIIIIIIIIIIIIIIAIIIIIIIIAAAAIIIIIIIIAAAAAAAAA
AAAIIIIIIIIIIIIIIIIIIIIIIIIIIIIIIIAIIIIIIIIAAAAIIIIIIIIIAAAAAAAA
AAAIIIIIIIIIIIIIIIIIIIIIIIIIIIIIIIAIIIIIIIIAAAAIIIIIIIIIAAAAAAAI
AAAIIIIIIIIIIIIIIIIIIIIIIIIIIIIIIIAIIIIIIIIIAAAIIIIIIIIIAAAAAAAI
AAAIIIIIIIIIIIIIIIIIIIIIIIIIIIIIIIAIIIIIIIIIIAAIIIIIIIIIAAAAAAAI
AAAIIIIIIIIIIIIIIIIIIIIIIIIIIIIIIIAIIIIIIIIIIAAIIIIIIIIIIAAAAAAI
AAAIIIIIIIIIIIIIIIIIIIIIIIIIIIIIIIAIIIIIIIIIIAAIIIIIIIIIIIAAAAAI
AAAIIIIIIIIIIIIIIIIIIIIIIIIIIIIIIIAIIIIIIIIIIAAIIIIIIIIIIIIAAAAI
AAAIIIIIIIIIIIIIIIIIIIIIIIIIIIIIIIAIIIIIIIIIIAAIIIIIIIIIIIIIAAAI
AAAIIIIIIIIIIIIIIIIIIIIIIIIIIIIIIIAIIIIIIIIIIAAIIIIIIIIIIIIIIAAI
AAAIIIIIIIIIIIIIIIIIIIIIIIIIIIIIIIAIIIIIIIIIIAAIIIIIIIIIIIIIIIAI
AAAIIIIIIIIIIIIIIIIIIIIIIIIIIIIIIIAIIIIIIIIIIAAIIIIIIIIIIIIIIIII
A2222222222222224IIIIIIIIIIIIIIIIIIIIIIIIIIIIIIIIIIIIIIIIIIIIIII
AA2222222222222224IIIIIIIIIIIIIIIIIIIIIIIIIIIIIIIIIIIIIIIIIIIIII
AAA2222222222222224IIIIIIIIIIIIIIIIIIIIIIIIIIIIIIIIIIIIIIIIIIIII
AAAA2222222222222224IIIIIIIIIIIIIIIIIIIIIIIIIIIIIIIIIIIIIIIIIIII
AAAAA2222222222222224IIIIIIIIIIIIIIIIIIIIIIIIIIIIIIIIIIIIIIIIIII
AAAAAA2222222222222224IIIIIIIIIIIIIIIIIIIIIIIIIIIIIIIIIIIIIIIIII
AAAAAAA2222222222222224IIIIIIIIIIIIIIIIIIIIIIIIIIIIIIIIIIIIIIIII
AAAAAAAA2222222222222224IIIIIIIIIIIIIIIIIIIIIIIIIIIIIIIIIIIIIIII
AAAAAAAAA2222222222222224IIIIIIIIIIIIIIIIIIIIIIIIIIIIIIIIIIIIIII
AAAAAAAAA2A2222222222222224IIIIIIIIIIIIIIIIIIIIIIIIIIIIIIIIIIIII
AAAAAAAAA2AA2222222222222224IIIIIIIIIIIIIIIIIIIIIIIIIIIIIIIIIIII
AAAAAAAAAAAA2222222222222224IIIIIIIIIIIIIIIIIIIIIIIIIIIIIIIIIIII
AAAAAAAAAAAAA2222222222222224IIIIIIIIIIIIIIIIIIIIIIIIIIIIIIIIIII
AAAAAAAAAAAAAA2222222222222224IIIIIIIIIIIIIIIIIIIIIIIIIIIIIIIIII
AAAAAAAAAAAAAAA2222222222222224IIIIIIIIIIIIIIIIIIIIIIIIIIIIIIIII
AAAAAAAAAAAAAAAA2222222222222224IIIIIIIIIIIIIIIIIIIIIIIIIIIIIIII
AAAAAAAAAAAAAAAAA2222222222222224IIIIIIIIIIIIIIIIIIIIIIIIIIIIIII
AAAAAAAAAAAAAAAAAA2222222222222224IIIIIIIIIIIIIIIIIIIIIIIIIIIIII
AAAAAAAAAAAAAAAAAAA2222222222222224IIIIIIIIIIIIIIIIIIIIIIIIIIIII
AAAAAAAAAAAAAAAAAAAA2222222222222224IIIIIIIIIIIIIIIIIIIIIIIIIIII
AAAAAAAAAAAAAAAAAAAAA2222222222222224IIIIIIIIIIIIIIIIIIIIIIIIIII
AAAAAAAAAAAAAAAAAAAAAA2222222222222224IIIIIIIIIIIIIIIIIIIIIIIIII
AAAAAAAAAAAAAAAAAAAAAAA2222222222222224IIIIIIIIIIIIIIIIIIIIIIIII
AAAAAAAAAAAAAAAAAAAAAAAA2222222222222224IIIIIIIIIIIIIIIIIIIIIIII
AAAAAAAAAAAAAAAAAAAAAAAAA2222222222222224IIIIIIIIIIIIIIIIIIIIIII
AAAAAAAAAAAAAAAAAAAAAAAAAA2222222222222224IIIIIIIIIIIIIIIIIIIIII
AAAAAAAAAAAAAAAAAAAAAAAAAAA2222222222222224IIIIIIIIIIIIIIIIIIIII
AAAAAAAAAAAAAAAAAAAAAAAAAAAA2222222222222224IIIIIIIIIIIIIIIIIIII
AAAAAAAAAAAAAAAAAAAAAAAAAAAAA2222222222222224IIIIIIIIIIIIIIIIIII
AAAAAAAAAAAAAAAAAAAAAAAAAAAAAA2222222222222224IIIIIIIIIIIIIIIIII
AAAAAAAAAAAAAAAAAAAAAAAAAAAAAA2A2222222222222224IIIIIIIIIIIIIIII
AAAAAAAAAAAAAAAAAAAAAAAAAAAAAAAA2222222222222224IIIIIIIIIIIIIIII
AAAAAAAAAAAAAAAAAAAAAAAAAAAAAAAAA2222222222222224IIIIIIIIIIIIIII
AAAAAAAAAAAAAAAAAAAAAAAAAAAAAAAAAA2222222222222224IIIIIIIIIIIIII
AAAAAAAAAAAAAAAAAAAAAAAAAAAAAAAAAAA2222222222222224IIIIIIIIIIIII
AAAAAAAAAAAAAAAAAAAAAAAAAAAAAAAAAAAA2222222222222224IIIIIIIIIIII
AAAAAAAAAAAAAAAAAAAAAAAAAAAAAAAAAAAAA2222222222222224IIIIIIIIIII
AAAAAAAAAAAAAAAAAAAAAAAAAAAAAAAAAAAAAA2222222222222224IIIIIIIIII
AAAAAAAAAAAAAAAAAAAAAAAAAAAAAAAAAAAAAAA2222222222222224IIIIIIIII
AAAAAAAAAAAAAAAAAAAAAAAAAAAAAAAAAAAAAAAA2222222222222224IIIIIIII
AAAAAAAAAAAAAAAAAAAAAAAAAAAAAAAAAAAAAAAAA2222222222222224IIIIIII
AAAAAAAAAAAAAAAAAAAAAAAAAAAAAAAAAAAAAAAAAA2222222222222224IIIIII
AAAAAAAAAAAAAAAAAAAAAAAAAAAAAAAAAAAAAAAAAAA2222222222222224IIIII
AAAAAAAAAAAAAAAAAAAAAAAAAAAAAAAAAAAAAAAAAAAA2222222222222224IIII
AAAAAAAAAAAAAAAAAAAAAAAAAAAAAAAAAAAAAAAAAAAAA2222222222222224III
AAAAAAAAAAAAAAAAAAAAAAAAAAAAAAAAAAAAAAAAAAAAAA2222222222222224II
AAAAAAAAAAAAAAAAAAAAAAAAAAAAAAAAAAAAAAAAAAAAAAA2222222222222224I
AAAAAAAAAAAAAAAAAAAAAAAAAAAAAAAAAAAAAAAAAAAAAAAA2222222222222224
AAAAAAAAAAAAAAAAAAAAAAAAAAAAAAAAAAAAAAAAAAAAAAAAA222222222222222
AAAAAAAAAAAAAAAAAAAAAAAAAAAAAAAAAAAAAAAAAAAAAAAAAA22222222222222
AAAAAAAAAAAAAAAAAAAAAAAAAAAAAAAAAAAAAAAAAAAAAAAAAAA2222222222222
AAAAAAAAAAAAAAAAAAAAAAAAAAAAAAAAAAAAAAAAAAAAAAAAAAAA222222222222
AAAAAAAAAAAAAAAAAAAAAAAAAAAAAAAAAAAAAAAAAAAAAAAAAAAAA22222222222
AAAAAAAAAAAAAAAAAAAAAAAAAAAAAAAAAAAAAAAAAAAAAAAAAAAAAA2222222222
AAAAAAAAAAAAAAAAAAAAAAAAAAAAAAAAAAAAAAAAAAAAAAAAAAAAAAA222222222
AAAAAAAAAAAAAAAAAAAAAAAAAAAAAAAAAAAAAAAAAAAAAAAAAAAAAAAA22222222
AAAAAAAAAAAAAAAAAAAAAAAAAAAAAAAAAAAAAAAAAAAAAAAAAAAAAAAAA2222222
AAAAAAAAAAAAAAAAAAAAAAAAAAAAAAAAAAAAAAAAAAAAAAAAAAAAAAAAAA222222
AAAAAAAAAAAAAAAAAAAAAAAAAAAAAAAAAAAAAAAAAAAAAAAAAAAAAAAAAAA22222
AAAAAAAAAAAAAAAAAAAAAAAAAAAAAAAAAAAAAAAAAAAAAAAAAAAAAAAAAAAA2222
AAAAAAAAAAAAAAAAAAAAAAAAAAAAAAAAAAAAAAAAAAAAAAAAAAAAAAAAAAAAA222
AAAAAAAAAAAAAAAAAAAAAAAAAAAAAAAAAAAAAAAAAAAAAAAAAAAAAAAAAAAAAA22
AAAAAAAAAAAAAAAAAAAAAAAAAAAAAAAAAAAAAAAAAAAAAAAAAAAAAAAAAAAAAAA2
AAAAAAAAAAAAAAAAAAAAAAAAAAAAAAAAAAAAAAAAAAAAAAAAAAAAAAAAAAAAAAAA
AAAAAAAIAAAAAAAAAAAAAAAAAAAAAAAAAAAAAAAAAAAAAAAAAAAAAAAAAAAAAAAA
AAAAAIAIAAAAAAAAAAAAAAAAAAAAAAAAAAAAAAAAAAAAAAAAAAAAAAAAAAAAAAAA
AAAAAIIIAAAAAAAAAAAAAAAAAAAAAAAAAAAAAAAAAAAAAAAAAAAAAAAAAAAAAAAA
AAAAAIIIIAAAAAAAAAAAAAAAAAAAAAAAAAAAAAAAAAAAAAAAAAAAAAAAAAAAAAAA
AAAAAIIIIIAAAAAAAAAAAAAAAAAAAAAAAAAAAAAAAAAAAAAAAAAAAAAAAAAAAAAA
AAAAAIIIIIIAAAAAAAAAAAAAAAAAAAAAAAAAAAAAAAAAAAAAAAAAAAAAAAAAAAAA
AAAAAIIIIIIIAAAAAAAAAAAAAAAAAAAAAAAAAAAAAAAAAAAAAAAAAAAAAAAAAAAA
AAAAAIIIIIIIIAAAAAAAAAAAAAAAAAAAAAAAAAAAAAAAAAAAAAAAAAAAAAAAAAAA
AAAAAIIIIIIIIIAAAAAAAAAAAAAAAAAAAAAAAAAAAAAAAAAAAAAAAAAAAAAAAAAA
AAAAAIIIIIIIIIIAAAAAAAAAAAAAAAAAAAAAAAAAAAAAAAAAAAAAAAAAAAAAAAAA
AAAAAIIIIIIIIIIIAAAAAAAAAAAAAAAAAAAAAAAAAAAAAAAAAAAAAAAAAAAAAAAA
AAAAAIIIIIIIIIIIAAAAAAAAAAAAAAAAAAAAAAAAAAAAAAAAAAAAAAAAAAAAAIAA
AAAAAIIIIIIIIIIIAAAAAAAAAAAAAAAAAAAAAAAAAAAAAAAAAAAAAAAAAAAAAIIA
AAAAAIIIIIIIIIIIAAAAAAAAAAAAAAAAAAAAAAAAAAAAAAAAAAAAAAAAAAAAAIII
AAIAAIIIIIIIIIIIAAAAAAAAAAAAAAAAAAAAAAAAAAAAAAAAAAAAAAAAAAAAAIII
AAIAAIIIIIIIIIIIAIAAAAAAAAAAAAAAAAAAAAAAAAAAAAAAAAAAAAAAAAAAAIII
AAIAAIIIIIIIIIIIIIAAAAAAAAAAAAAAAAAAAAAAAAAAAAAAAAAAAAAAAAAAAIII
AAIAAIIIIIIIIIIIIIAIAAAAAAAAAAAAAAAAAAAAAAAAAAAAAAAAAAAAAAAAAIII
AAIAAIIIIIIIIIIIIIAIIAAAAAAAAAAAAAAAAAAAAAAAAAAAAAAAAAAAAAAAAIII
AAIAAIIIIIIIIIIIIIAIIIAAAAAAAAAAAAAAAAAAAAAAAAAAAAAAAAAAAAAAAIII
AAIAAIIIIIIIIIIIIIAIIIIAAAAAAAAAAAAAAAAAAAAAAAAAAAAAAAAAAAAAAIII
AAIAAIIIIIIIIIIIIIIIIIIAAAAAAAAAAAAAAAAAAAAAAAAAAAAAAAAAAAAAAIII
AAIAAIIIIIIIIIIIIIIIIIIAAIAAAAAAAAAAAAAAAAAAAAAAAAAAAAAAAAAAAIII
AAIAAIIIIIIIIIIIIIIIIIIIAIAAAAAAAAAAAAAAAAAAAAAAAAAAAAAAAAAAAIII
AAIAAIIIIIIIIIIIIIIIIIIIIIAAAAAAAAAAAAAAAAAAAAAAAAAAAAAAAAAAAIII
AAIAAIIIIIIIIIIIIIIIIIIIIIAIAAAAAAAAAAAAAAAAAAAAAAAAAAAAAAAAAIII
AAIAAIIIIIIIIIIIIIIIIIIIIIAIIAAAAAAAAAAAAAAAAAAAAAAAAAAAAAAAAIII
AAIAAIIIIIIIIIIIIIIIIIIIIIIIIAAAAAAAAAAAAAAAAAAAAAAAAAAAAAAAAIII
AAIAAIIIIIIIIIIIIIIIIIIIIIIIIAAAAAAAIAAAAAAAAAAAAAAAAAAAAAAAAIII
AAIAAIIIIIIIIIIIIIIIIIIIIIIIIAAAAAAAIIAAAAAAAAAAAAAAAAAAAAAAAIII
AAIAAIIIIIIIIIIIIIIIIIIIIIIIIAIAAAAAIIAAAAAAAAAAAAAAAAAAAAAAAIII
AAIAAIIIIIIIIIIIIIIIIIIIIIIIIAIIAAAAIIAAAAAAAAAAAAAAAAAAAAAAAIII
AAIAAIIIIIIIIIIIIIIIIIIIIIIIIAIIAIAAIIAAAAAAAAAAAAAAAAAAAAAAAIII
AAIAAIIIIIIIIIIIIIIIIIIIIIIIIAIIAIIAIIAAAAAAAAAAAAAAAAAAAAAAAIII
AAIAAIIIIIIIIIIIIIIIIIIIIIIIIIIIAIIAIIAAAAAAAAAAAAAAAAAAAAAAAIII
AAIAAIIIIIIIIIIIIIIIIIIIIIIIIIIIIIIAIIAAAAAAAAAAAAAAAAAAAAAAAIII
AAIAAIIIIIIIIIIIIIIIIIIIIIIIIIIIIIIIIIAAAAAAAAAAAAAAAAAAAAAAAIII
AAIAAIIIIIIIIIIIIIIIIIIIIIIIIIIIIIIIIIIAAAAAAAAAAAAAAAAAAAAAAIII
AAIAAIIIIIIIIIIIIIIIIIIIIIIIIIIIIIIIIIIIAAAAAAAAAAAAAAAAAAAAAIII
AAIAAIIIIIIIIIIIIIIIIIIIIIIIIIIIIIIIIIIIIAAAAAAAAAAAAAAAAAAAAIII
AAIAAIIIIIIIIIIIIIIIIIIIIIIIIIIIIIIIIIIIIIAAAAAAAAAAAAAAAAAAAIII
AAIAAIIIIIIIIIIIIIIIIIIIIIIIIIIIIIIIIIIIIIIAAAAAAAAAAAAAAAAAAIII
AAIAAIIIIIIIIIIIIIIIIIIIIIIIIIIIIIIIIIIIIIIIAAAAAAAAAAAAAAAAAIII
AAIAAIIIIIIIIIIIIIIIIIIIIIIIIIIIIIIIIIIIIIIIIAAAAAAAAAAAAAAAAIII
AAIAAIIIIIIIIIIIIIIIIIIIIIIIIIIIIIIIIIIIIIIIIIAAAAAAAAAAAAAAAIII
AAIAAIIIIIIIIIIIIIIIIIIIIIIIIIIIIIIIIIIIIIIIIIIAAAAAAAAAAAAAAIII
AAIAAIIIIIIIIIIIIIIIIIIIIIIIIIIIIIIIIIIIIIIIIIIIAAAAAAAAAAAAAIII
AAIAAIIIIIIIIIIIIIIIIIIIIIIIIIIIIIIIIIIIIIIIIIIIIAAAAAAAAAAAAIII
AAIAAIIIIIIIIIIIIIIIIIIIIIIIIIIIIIIIIIIIIIIIIIIIIIAAAAAAAAAAAIII
AAIAAIIIIIIIIIIIIIIIIIIIIIIIIIIIIIIIIIIIIIIIIIIIIIIAAAAAAAAAAIII
AAIAAIIIIIIIIIIIIIIIIIIIIIIIIIIIIIIIIIIIIIIIIIIIIIIIAAAAAAAAAIII
AAIAAIIIIIIIIIIIIIIIIIIIIIIIIIIIIIIIIIIIIIIIIIIIIIIIIAAAAAAAAIII
AAIAAIIIIIIIIIIIIIIIIIIIIIIIIIIIIIIIIIIIIIIIIIIIIIIIIIAAAAAAAIII
AAIAAIIIIIIIIIIIIIIIIIIIIIIIIIIIIIIIIIIIIIIIIIIIIIIIIIIAAAAAAIII
AAIAAIIIIIIIIIIIIIIIIIIIIIIIIIIIIIIIIIIIIIIIIIIIIIIIIIIIAAAAAIII
AAIAAIIIIIIIIIIIIIIIIIIIIIIIIIIIIIIIIIIIIIIIIIIIIIIIIIIIIAAAAIII
AAIAAIIIIIIIIIIIIIIIIIIIIIIIIIIIIIIIIIIIIIIIIIIIIIIIIIIIIIAAAIII
AAIAAIIIIIIIIIIIIIIIIIIIIIIIIIIIIIIIIIIIIIIIIIIIIIIIIIIIIIIAAIII
AAIAAIIIIIIIIIIIIIIIIIIIIIIIIIIIIIIIIIIIIIIIIIIIIIIIIIIIIIIIAIII
AAIAAIIIIIIIIIIIIIIIIIIIIIIIIIIIIIIIIIIIIIIIIIIIIIIIIIIIIIIIIIII
AAIAAIIII4IIIII4IIIIIIIIIIIIIIIIIIIIIIIIIIIIIIIIIIIIIIIIIIIIIIII
AAIAAIIII4AIIII2IIII4IIIII4IIII4IIIIIIIIIIIIIIIIIIIIIIIIIIIIIIII
AAIAAIIII4AIIIIAIIII2IIII44IIII4IIII4IIIIIIIIIIIIIIIIIIIIIIIIIII
AAIAAIIII4AIIIIAIIIIAIIII24III44IIII4IIII4IIIIIIIIIIIIIIIIIIIIII
AAIAAIIII4AIIIIAIIIIAIIIIA4III24IIII4IIII4IIII4IIII4IIII4IIIIIII
AAIAAIIII4AIIIIAIIIIAIIIIA4III2AIIII2IIII4IIII4IIII44III44IIII4I
AAIAAIIII4AIIIIAIIIIAIIIIA4III2AIIIIAIIII2IIII4IIII44III44IIII4I
AAIAAIIII4IIIIIAIIIIAIIIIA4III2AIIIIAIIII2IIII4IIII44III44IIII4I
AAIAAIIII4IIIIIAIIIIAIIIIA4III2AIIIIAIIIIAIIII4IIII44III44IIII4I
AAIAAIIII4IIIIIIIIIIAIIIIA4III2AIIIIAIIIIAIIII4IIII44III44IIII4I
AAIAAIIII4IIIIIIIIIIAIIIIA4III2AIIIIAIIIIAIIIIAIIII44III44IIII4I
AAIAAIIII4IIIIIIIIIIAIIIIA4III2AIIIIAIIIIAIIIIAIIII4AIII44IIII4I
AAIAAIIII4IIIIIIIIIIAIIIIA4III2AIIIIAIIIIAIIIIAIIII4AIII4AIIII4I
AAIAAIIII4IIIIIIIIIIAIIIIA4III2AIIIIAIIIIAIIIIAIIII4AIII4AIIIIAI
AAIAAIIII4IIIIIIIIIIIIIIIA4III2AIIIIAIIIIAIIIIAIIII4AIII4AIIIIAI
AAIAAIIII4IIIIIIIIIIIIIIII4III2AIIIIAIIIIAIIIIAIIII4AIII4AIIIIAI
AAIAAIII42IIIIIIIIIIIIIIII4III2AIIIIAIIIIAIIIIAIIII4AIII4AIIIIAI
AAIAAIII4AIII42IIIIIIIIIII4III2AIIIIAIIIIAIIIIAIIII4AIII4AIIIIAI
AAIAAIII4AIII4AIII42IIIIII4III2AIIIIAIIIIAIIIIAIIII4AIII4AIIIIAI
AAIAAIII4AIII4AIII4AIIII2I4II22AIIIIAII4IAIIIIAIIII4AIII4AIIIIAI
AAIAAIII4AIII4AIII4AIIII2A4II22AIII2AII4IAIII4AIIII4AIII4AIIIIAI
AAIAAIII4AIII4AIII4AIIII2A4II2AAIII2AII42AIII4AIII44AIII4AIIIIAI
AAIAAIII4IIII4AIII4AIIII2A4II2AAIII2AII42AIII4AIII44AIII4AIIIIAI
AAIAAIII4IIII4AIII4AIIII2A4II2AAII4AAII42AIII2AIII44AII44AIIIIAI
AAIAAIII4IIII4AIII4AIIII2A4II2AAII4AAII4AAIII2AIII24AII44AII44AI
AAIAAIII4IIII4IIII4AIIII2A4II2AAII4AAII4AAIII2AIII24AII44AII44AI
AAIAAIII4IIII4IIII4AIIII2A4II2AAII4AAII4AAIII2AIII22AII42AII44AI
AAIAAIII4IIII4IIII4AIIII2A4II2AAII4AAII4AAIII2AIII2AAII42AII42AI
AAIAAIII4IIII4IIII4AIIII2A4II2IAII4AAII4AAIII2AIII2AAII42AII42AI
AAIAAIII4IIII4IIII4AIIII2A4II2IAII4AAII4AAIII2AIII2AAII4AAII42AI
AAIAAIII4IIII4IIII4AIIII2A4II2IAII4AAII4AAIII2AIII2AAII4AAII4AAI
AAIAAIII4IIII4IIII4IIIII2A4II2IAII4AAII4AAIII2AIII2AAII4AAII4AAI
AAIAAIII4IIII4IIII4IIIII2A4II2IAII4AAII4AAIII2IIII2AAII4AAII4AAI
AAIAAIII4IIII4IIII4IIIII2A4II2IAII4IAII4AAIII2IIII2AAII4AAII4AAI
AAIAAIII4IIII4IIII4IIIII2A4II2IAII4IAII4AAIII2IIII2AAII4IAII4AAI
AAIAAIII4IIII4IIII4IIIII2A4IIIIAII4IAII4AAIII2IIII2AAII4IAII4AAI
AAIAAIII4IIII4IIII4IIIII2A4IIIIAII4IAII4AAIII2IIIIIAAII4IAII4AAI
AAIAAIII4IIII4IIII4IIIII2A4IIIIAII4IAII4AAIII2IIIIIAAII4IAII4IAI
AA2AA222222222444I4IIIII2A4IIIIAII4IAII4AAIII2IIIIIAAII4IAII4IAI
AA2AA22222222224444IIIII2A4IIIIAII4IAII4AAIII2IIIIIAAII4IAII4IAI
AAAAA22222222222444IIIII2A4IIIIAII4IAII4AAIII2IIIIIAAII4IAII4IAI
AAAAA222222222222444IIII2A4IIIIAII4IAII4AAIII2IIIIIAAII4IAII4IAI
AAAAA2222222222222444III2A4IIIIAII4IAII4AAIII2IIIIIAAII4IAII4IAI
AAAAAA2222222222222444II2A4IIIIAII4IAII4AAIII2IIIIIAAII4IAII4IAI
AAAAAAA2222222222222444I2A4IIIIAII4IAII4AAIII2IIIIIAAII4IAII4IAI
AAAAAAAA22222222222224442A4IIIIAII4IAII4AAIII2IIIIIAAII4IAII4IAI
AAAAAAAAA2222222222222442A4IIIIAII4IAII4AAIII2IIIIIAAII4IAII4IAI
AAAAAAAAAA222222222222242A4IIIIAII4IAII4AAIII2IIIIIAAII4IAII4IAI
AAAAAAAAAAA22222222222222A4IIIIAII4IAII4AAIII2IIIIIAAII4IAII4IAI
AAAAAAAAAAAA2222222222222A44IIIAII4IAII4AAIII2IIIIIAAII4IAII4IAI
AAAAAAAAAAAAA222222222222A444IIAII4IAII4AAIII2IIIIIAAII4IAII4IAI
AAAAAAAAAAAAAA22222222222A2444IAII4IAII4AAIII2IIIIIAAII4IAII4IAI
AAAAAAAAAAAAAAA2222222222A22444AII4IAII4AAIII2IIIIIAAII4IAII4IAI
AAAAAAAAAAAAAAAA222222222A22244AII4IAII4AAIII2IIIIIAAII4IAII4IAI
AAAAAAAAAAAAAAAAA22222222A22224A4I4IAII4AAIII2IIIIIAAII4IAII4IAI
AAAAAAAAAAAAAAAAAA2222222A22222A444IAII4AAIII2IIIIIAAII4IAII4IAI
AAAAAAAAAAAAAAAAAAA222222A22222A444IAII4AAIII2IIIIIAAII4IAII4IAI
AAAAAAAAAAAAAAAAAAAA22222A22222A444IAII4AAIII2IIIIIAAII4IAII4IAI
AAAAAAAAAAAAAAAAAAAAA2222A22222A2244AII4AAIII2IIIIIAAII4IAII4IAI
AAAAAAAAAAAAAAAAAAAAAA222A22222A2224A4I4AAIII2IIIIIAAII4IAII4IAI
AAAAAAAAAAAAAAAAAAAAAAA22A22222A2222A444AAIII2IIIIIAAII4IAII4IAI
AAAAAAAAAAAAAAAAAAAAAAAA2A22222A2222A444AAIII2IIIIIAAII4IAII4IAI
AAAAAAAAAAAAAAAAAAAAAAAAAA22222A2222A444AAIII2IIIIIAAII4IAII4IAI
AAAAAAAAAAAAAAAAAAAAAAAAAA22222A2222A224AAIII2IIIIIAAII4IAII4IAI
AAAAAAAAAAAAAAAAAAAAAAAAAAA2222A2222A222AA4II2IIIIIAAII4IAII4IAI
AAAAAAAAAAAAAAAAAAAAAAAAAAAA222A2222A222AA44I2IIIIIAAII4IAII4IAI
AAAAAAAAAAAAAAAAAAAAAAAAAAAAA22A2222A222AA4442IIIIIAAII4IAII4IAI
AAAAAAAAAAAAAAAAAAAAAAAAAAAAAA2A2222A222AA4442IIIIIAAII4IAII4IAI
AAAAAAAAAAAAAAAAAAAAAAAAAAAAAAAA2222A222AA2442IIIIIAAII4IAII4IAI
AAAAAAAAAAAAAAAAAAAAAAAAAAAAAAAA2222A222AA2222IIIIIAAII4IAII4IAI
AAAAAAAAAAAAAAAAAAAAAAAAAAAAAAAAA222A222AA22224IIIIAAII4IAII4IAI
AAAAAAAAAAAAAAAAAAAAAAAAAAAAAAAAAA22A222AA22222444IAAII4IAII4IAI
AAAAAAAAAAAAAAAAAAAAAAAAAAAAAAAAAAA2A222AA222222444AAII4IAII4IAI
AAAAAAAAAAAAAAAAAAAAAAAAAAAAAAAAAAAAA222AA222222444AAII4IAII4IAI
AAAAAAAAAAAAAAAAAAAAAAAAAAAAAAAAAAAAAA22AA222222222AA4I4IAII4IAI
AAAAAAAAAAAAAAAAAAAAAAAAAAAAAAAAAAAAAAA2AA222222222AA444IAII4IAI
AAAAAAAAAAAAAAAAAAAAAAAAAAAAAAAAAAAAAAAAAA222222222AA444IAII4IAI
AAAAAAAAAAAAAAAAAAAAAAAAAAAAAAAAAAAAAAAAAA222222222AA2444AII4IAI
AAAAAAAAAAAAAAAAAAAAAAAAAAAAAAAAAAAAAAAAAA222222222AA2244AII4IAI
AAAAAAAAAAAAAAAAAAAAAAAAAAAAAAAAAAAAAAAAAAA22222222AA2224A4I4IAI
AAAAAAAAAAAAAAAAAAAAAAAAAAAAAAAAAAAAAAAAAAAA2222222AA2222A444IAI
AAAAAAAAAAAAAAAAAAAAAAAAAAAAAAAAAAAAAAAAAAAAA222222AA2222A444IAI
AAAAAAAAAAAAAAAAAAAAAAAAAAAAAAAAAAAAAAAAAAAAAA22222AA2222A2444AI
AAAAAAAAAAAAAAAAAAAAAAAAAAAAAAAAAAAAAAAAAAAAAAA2222AA2222A2244AI
AAAAAAAAAAAAAAAAAAAAAAAAAAAAAAAAAAAAAAAAAAAAAAAA222AA2222A2224A4
AAAAAAAAAAAAAAAAAAAAAAAAAAAAAAAAAAAAAAAAAAAAAAAAA22AA2222A2222A4
AAAAAAAAAAAAAAAAAAAAAAAAAAAAAAAAAAAAAAAAAAAAAAAAAA2AA2222A2222A4
AAAAAAAAAAAAAAAAAAAAAAAAAAAAAAAAAAAAAAAAAAAAAAAAAAAAA2222A2222A2
AAAAAAAAAAAAAAAAAAAAAAAAAAAAAAAAAAAAAAAAAAAAAAAAAAAAAA222A2222A2
AAAAAAAAAAAAAAAAAAAAAAAAAAAAAAAAAAAAAAAAAAAAAAAAAAAAAAA22A2222A2
AAAAAAAAAAAAAAAAAAAAAAAAAAAAAAAAAAAAAAAAAAAAAAAAAAAAAAAA2A2222A2
AAAAAAAAAAAAAAAAAAAAAAAAAAAAAAAAAAAAAAAAAAAAAAAAAAAAAAAAAA2222A2
AAAAAAAAAAAAAAAAAAAAAAAAAAAAAAAAAAAAAAAAAAAAAAAAAAAAAAAAAAA222A2
AAAAAAAAAAAAAAAAAAAAAAAAAAAAAAAAAAAAAAAAAAAAAAAAAAAAAAAAAAAA22A2
AAAAAAAAAAAAAAAAAAAAAAAAAAAAAAAAAAAAAAAAAAAAAAAAAAAAAAAAAAAAA2A2
AAAAAAAAAAAAAAAAAAAAAAAAAAAAAAAAAAAAAAAAAAAAAAAAAAAAAAAAAAAAAAA2
AAAAAAAAAAAAAAAAAAAAAAAAAAAAAAAAAAAAAAAAAAAAAAAAAAAAAAAAAAAAAAAA
AIAAAAAAAAAAAAAAAAAAAAAAAAAAAAAAAAAAAAAAAAAAAAAAAAAAAAAAAAAAAAAA
AIAAAAIAAAAAAAAAAAAAAAAAAAAAAAAAAAAAAAAAAAAAAAAAAAAAAAAAAAAAAAAA
AIAAAAIAIAAAAAAAAAAAAAAAAAAAAAAAAAAAAAAAAAAAAAAAAAAAAAAAAAAAAAAA
AIAAAAIAIAAAAAAAAIAAAAAAAAAAAAAAAAAAAAAAAAAAAAAAAAAAAAAAAAAAAAAA
AIAAAAIAIAAAAAAAIIAAAAAAAAAAAAAAAAAAAAAAAAAAAAAAAAAAAAAAAAAAAAAA
AIAIAAIAIAAAAAAAIIAAAAAAAAAAAAAAAAAAAAAAAAAAAAAAAAAAAAAAAAAAAAAA
AIAIAIIAIAAAAAAAIIAAAAAAAAAAAAAAAAAAAAAAAAAAAAAAAAAAAAAAAAAAAAAA
AIIIAIIAIAAAAAAAIIAAAAAAAAAAAAAAAAAAAAAAAAAAAAAAAAAAAAAAAAAAAAAA
AIIIAIIIIAAAAAAAIIAAAAAAAAAAAAAAAAAAAAAAAAAAAAAAAAAAAAAAAAAAAAAA
AIIIAIIIIAAAAAAAIIAIAAAAAAAAAAAAAAAAAAAAAAAAAAAAAAAAAAAAAAAAAAAA
AIIIAIIIIAAAAAAAIIAIAAIAAAAAAAAAAAAAAAAAAAAAAAAAAAAAAAAAAAAAAAAA
AIIIAIIIIAAAAAAAIIAIAIIAAAAAAAAAAAAAAAAAAAAAAAAAAAAAAAAAAAAAAAAA
AIIIAIIIIAAAAAAAIIIIAIIAAAAAAAAAAAAAAAAAAAAAAAAAAAAAAAAAAAAAAAAA
AIIIIIIIIAAAAAAAIIIIAIIAAAAAAAAAAAAAAAAAAAAAAAAAAAAAAAAAAAAAAAAA
AIIIIIIIIAAAAAAAIIIIIIIAAAAAAAAAAAAAAAAAAAAAAAAAAAAAAAAAAAAAAAAA
AIIIIIIIIIAAAAAAIIIIIIIAAAAAAAAAAAAAAAAAAAAAAAAAAAAAAAAAAAAAAAAA
AIIIIIIIIIAAAAAAIIIIIIIIAAAAAAAAAAAAAAAAAAAAAAAAAAAAAAAAAAAAAAAA
AIIIIIIIIIAAAAAAIIIIIIIIAAAIAAAAAAAAAAAAAAAAAAAAAAAAAAAAAAAAAAAA
AIIIIIIIIIIAAAAAIIIIIIIIAAAIAAAAAAAAAAAAAAAAAAAAAAAAAAAAAAAAAAAA
AIIIIIIIIIIAAAAAIIIIIIIIIAAIAAAAAAAAAAAAAAAAAAAAAAAAAAAAAAAAAAAA
AIIIIIIIIIIAAAAAIIIIIIIIIAIIAAAAAAAAAAAAAAAAAAAAAAAAAAAAAAAAAAAA
AIIIIIIIIIIAAAAAIIIIIIIIIAIIIAAAAAAAAAAAAAAAAAAAAAAAAAAAAAAAAAAA
AIIIIIIIIIIAAAAAIIIIIIIIIIIIIAAAAAAAAAAAAAAAAAAAAAAAAAAAAAAAAAAA
AIIIIIIIIIIAAAAAIIIIIIIIIIIIIAAIAAAAAAAAAAAAAAAAAAAAAAAAAAAAAAAA
AIIIIIIIIIIAAAAAIIIIIIIIIIIIIIAIAAAAAAAAAAAAAAAAAAAAAAAAAAAAAAAA
AIIIIIIIIIIAAAAAIIIIIIIIIIIIIIIIAAAAAAAAAAAAAAAAAAAAAAAAAAAAAAAA
AIIIIIIIIIIAAAAAIIIIIIIIIIIIIIIIIAAAAAAAAAAAAAAAAAAAAAAAAAAAAAAA
AIIIIIIIIIIAAAAAIIIIIIIIIIIIIIIIIIAAAAAAAAAAAAAAAAAAAAAAAAAAAAAA
AIIIIIIIIIIAAAAAIIIIIIIIIIIIIIIIIIIAAAAAAAAAAAAAAAAAAAAAAAAAAAAA
AIIIIIIIIIIAAAAAIIIIIIIIIIIIIIIIIIIIAAAAAAAAAAAAAAAAAAAAAAAAAAAA
AIIIIIIIIIIAAAAAIIIIIIIIIIIIIIIIIIIIIAAAAAAAAAAAAAAAAAAAAAAAAAAA
AIIIIIIIIIIAAAAAIIIIIIIIIIIIIIIIIIIIIAIAAAAAAAAAAAAAAAAAAAAAAAAA
AIIIIIIIIIIAAAAAIIIIIIIIIIIIIIIIIIIIIIIAAAAAAAAAAAAAAAAAAAAAAAAA
AIIIIIIIIIIAAAAAIIIIIIIIIIIIIIIIIIIIIIIAAAIAAAAAAAAAAAAAAAAAAAAA
AIIIIIIIIIIAAAAAIIIIIIIIIIIIIIIIIIIIIIIAAIIAAAAAAAAAAAAAAAAAAAAA
AIIIIIIIIIIAAAAAIIIIIIIIIIIIIIIIIIIIIIIAIIIAAAAAAAAAAAAAAAAAAAAA
AIIIIIIIIIIAAAAAIIIIIIIIIIIIIIIIIIIIIIIIIIIAAAAAAAAAAAAAAAAAAAAA
[...]
AAAAAIIIIIIIIIIIIIIIIIIIIIIIIIIIIIIIIIIIIAAAAAAAAAAAAAAAAAAAAIII
AAAAAIIIIIIIIIIIIIIIIIIIIIIIIIIIIIIIIIIIIIAAAAAAAAAAAAAAAAAAAIII
AAAAAIIIIIIIIIIIIIIIIIIIIIIIIIIIIIIIIIIIIIIAAAAAAAAAAAAAAAAAAIII
AAAAAIIIIIIIIIIIIIIIIIIIIIIIIIIIIIIIIIIIIIIIAAAAAAAAAAAAAAAAAIII
AAAAAIIIIIIIIIIIIIIIIIIIIIIIIIIIIIIIIIIIIIIIIAAAAAAAAAAAAAAAAIII
AAAAAIIIIIIIIIIIIIIIIIIIIIIIIIIIIIIIIIIIIIIIIIAAAAAAAAAAAAAAAIII
AAAAAIIIIIIIIIIIIIIIIIIIIIIIIIIIIIIIIIIIIIIIIIIAAAAAAAAAAAAAAIII
AAAAAIIIIIIIIIIIIIIIIIIIIIIIIIIIIIIIIIIIIIIIIIIIAAAAAAAAAAAAAIII
AAAAAIIIIIIIIIIIIIIIIIIIIIIIIIIIIIIIIIIIIIIIIIIIIAAAAAAAAAAAAIII
AAAAAIIIIIIIIIIIIIIIIIIIIIIIIIIIIIIIIIIIIIIIIIIIIIAAAAAAAAAAAIII
AAAAAIIIIIIIIIIIIIIIIIIIIIIIIIIIIIIIIIIIIIIIIIIIIIIAAAAAAAAAAIII
AAAAAIIIIIIIIIIIIIIIIIIIIIIIIIIIIIIIIIIIIIIIIIIIIIIIAAAAAAAAAIII
AAAAAIIIIIIIIIIIIIIIIIIIIIIIIIIIIIIIIIIIIIIIIIIIIIIIIAAAAAAAAIII
AAAAAIIIIIIIIIIIIIIIIIIIIIIIIIIIIIIIIIIIIIIIIIIIIIIIIIAAAAAAAIII
AAAAAIIIIIIIIIIIIIIIIIIIIIIIIIIIIIIIIIIIIIIIIIIIIIIIIIIAAAAAAIII
AAAAAIIIIIIIIIIIIIIIIIIIIIIIIIIIIIIIIIIIIIIIIIIIIIIIIIIIAAAAAIII
AAAAAIIIIIIIIIIIIIIIIIIIIIIIIIIIIIIIIIIIIIIIIIIIIIIIIIIIIAAAAIII
AAAAAIIIIIIIIIIIIIIIIIIIIIIIIIIIIIIIIIIIIIIIIIIIIIIIIIIIIIAAAIII
AAAAAIIIIIIIIIIIIIIIIIIIIIIIIIIIIIIIIIIIIIIIIIIIIIIIIIIIIIIAAIII
AAAAAIIIIIIIIIIIIIIIIIIIIIIIIIIIIIIIIIIIIIIIIIIIIIIIIIIIIIIIAIII
AAAAAIIIIIIIIIIIIIIIIIIIIIIIIIIIIIIIIIIIIIIIIIIIIIIIIIIIIIIIIIII
AAAAAIIII4IIIII4IIIIIIIIIIIIIIIIIIIIIIIIIIIIIIIIIIIIIIIIIIIIIIII
AAAAAIIII4AIIII4IIIIIIIIIIIIIIIIIIIIIIIIIIIIIIIIIIIIIIIIIIIIIIII
AAAAAIIII4AIIIIAIIII2IIII4IIIII4IIII4IIIIIIIIIIIIIIIIIIIIIIIIIII
AAAAAIIII4AIIIIAIIIIAIIII2IIII44IIII4IIII4IIIIIIIIIIIIIIIIIIIIII
AAAAAIIII4AIIIIAIIIIAIIIIAIIII24IIII4IIII4IIII4IIII4IIIIIIIIIIII
AAAAAIIII4AIIIIAIIIIAIIIIAIIII2AIIII2IIII4IIII4IIII44IIII4IIIIII
AAAAAIIII4AIIIIAIIIIAIIIIAIIII2AIIIIAIIII2IIII4IIII44IIII4IIII4I
AAAAAIIII4IIIIIAIIIIAIIIIAIIII2AIIIIAIIII2IIII4IIII44IIII4IIII4I
AAAAAIIII4IIIIIAIIIIAIIIIAIIII2AIIIIAIIIIAIIII4IIII44IIII4IIII4I
AAAAAIIII4IIIIIAIIIIAIIIIAIIII2AIIIIAIIIIAIIIIAIIII44IIII4IIII4I
AAAAAIIII4IIIIIAIIIIAIIIIAIIII2AIIIIAIIIIAIIIIAIIII4AIIII4IIII4I
AAAAAIIII4IIIIIAIIIIAIIIIAIIII2AIIIIAIIIIAIIIIAIIII4AIIIIAIIII4I
AAAAAIIII4IIIIIAIIIIAIIIIAIIII2AIIIIAIIIIAIIIIAIIII4AIIIIAIIIIAI
AAAAAIIII4IIIIIAIIIIAIIIIAIIII2AIIIIAIIIIAIIIIAIIII4IIIIIAIIIIAI
AAAAAIIII2IIIIIAIIIIAIIIIAIIII2AIIIIAIIIIAIIIIAIIII4IIIIIAIIIIAI
AAAAAIII4AIII42AIII2AIII4AIIII2AIIIIAIIIIAIIIIAIIII4IIIIIAIIIIAI
AAAAAIII4AIII4AAII42AIII2AIII42AIIIIAIIIIAIIIIAIIII4IIIIIAIIIIAI
AAAAAIII4AIII4AAII4AAII42AIII22AII4IAIIIIAIIIIAIIII4IIIIIAIIIIAI
AAAAAIII4AIII4AAII4AAII42AIII22AII42AIII4AIIIIAIIII4IIIIIAIIIIAI
AAAAAIII4AIII4AAII4AAII42AIII2AAII42AIII2AIIIIAIII44III4IAIIIIAI
AAAAAIII4AIII4AAII4AAII42AIII2AAII4AAIII2AIII2AIII44III44AII4IAI
AAAAAIII4AIII4AAII4AAII42AIII2AAII4AAII4AAIII2AIII24III44AII44AI
AAAAAIII4AIII4AAII4AAII42AIII2AAII4AAII4AAIII2AIII22III42AII44AI
AAAAAIII4AIII4AAII4AAII42AIII2AAII4AAII4AAIII2AIII2AIII42AII42AI
AAAAAIII4AIII4IAII4AAII42AIII2AAII4AAII4AAIII2AIII2AIII42AII42AI
AAAAAIII4AIII4IAII4AAII42AIII2AAII4AAII4AAIII2AIII2AIII4AAII42AI
AAAAAIII4AIII4IAII4AAII42AIII2AAII4AAII4AAIII2AIII2AIII4AAII4AAI
AAAAAIII4AIII4IAII4AAII42AIII2AAII4AAII4AAIII2IIII2AIII4AAII4AAI
AAAAAIII4AIII4IAII4AAII42AIII2AAII4IAII4AAIII2IIII2AIII4AAII4AAI
AAAAAIII4AIII4IAII4AAII42AIII2AAII4IAII4IAIII2IIII2AIII4AAII4AAI
AAAAAIII4AIII4IAII4AAII4IAIII2AAII4IAII4IAIII2IIII2AIII4AAII4AAI
AAAAAIII4AIII4IAII4AAII4IAIIIIAAII4IAII4IAIII2IIII2AIII4AAII4AAI
AAAAAIII4AIII4IAII4AAII4IAIIIIAAII4IAII4IAIII2IIII2AIII4IAII4AAI
AAAAAIII4AIII4IAII4AAII4IAIIIIAAII4IAII4IAIIIIIIII2AIII4IAII4AAI
AAAAAIII4AIII4IAII4AAII4IAIIIIAAII4IAII4IAIIIIIIIIIAIII4IAII4AAI
AAAAAIII4AIII4IAII4AAII4IAIIIIAAII4IAII4IAIIIIIIIIIAIII4IAII4IAI
AAAAA2222A2222IAII4AA4I4IAIIIIAAII4IAII4IAIIIIIIIIIAIII4IAII4IAI
AAAAA2222A22222AII4AA444IAIIIIAAII4IAII4IAIIIIIIIIIAIII4IAII4IAI
AAAAA2222A22222A2I4AA4444AIIIIAAII4IAII4IAIIIIIIIIIAIII4IAII4IAI
AAAAA2222A22222A224AA4444AIIIIAAII4IAII4IAIIIIIIIIIAIII4IAII4IAI
AAAAAA222A22222A222AA4444A4IIIAAII4IAII4IAIIIIIIIIIAIII4IAII4IAI
AAAAAAA22A22222A222AA4444A44IIAAII4IAII4IAIIIIIIIIIAIII4IAII4IAI
AAAAAAAA2A22222A222AA4444A444IAAII4IAII4IAIIIIIIIIIAIII4IAII4IAI
AAAAAAAAAA22222A222AA2444A4444AAII4IAII4IAIIIIIIIIIAIII4IAII4IAI
AAAAAAAAAA22222A222AA2244A4444AAII4IAII4IAIIIIIIIIIAIII4IAII4IAI
AAAAAAAAAAA2222A222AA2224A4444AAII4IAII4IAIIIIIIIIIAIII4IAII4IAI
AAAAAAAAAAAA222A222AA2222A4444AA4I4IAII4IAIIIIIIIIIAIII4IAII4IAI
AAAAAAAAAAAAA22A222AA2222A4444AA444IAII4IAIIIIIIIIIAIII4IAII4IAI
AAAAAAAAAAAAAA2A222AA2222A2444AA444IAII4IAIIIIIIIIIAIII4IAII4IAI
AAAAAAAAAAAAAAAA222AA2222A2244AA4444AII4IAIIIIIIIIIAIII4IAII4IAI
AAAAAAAAAAAAAAAA222AA2222A2224AA4444AII4IAIIIIIIIIIAIII4IAII4IAI
AAAAAAAAAAAAAAAAA22AA2222A2222AA4444A4I4IAIIIIIIIIIAIII4IAII4IAI
AAAAAAAAAAAAAAAAAA2AA2222A2222AA4444A444IAIIIIIIIIIAIII4IAII4IAI
AAAAAAAAAAAAAAAAAAAAA2222A2222AA4444A444IAIIIIIIIIIAIII4IAII4IAI
AAAAAAAAAAAAAAAAAAAAA2222A2222AA2444A4444AIIIIIIIIIAIII4IAII4IAI
AAAAAAAAAAAAAAAAAAAAA2222A2222AA2244A4444AIIIIIIIIIAIII4IAII4IAI
AAAAAAAAAAAAAAAAAAAAAA222A2222AA2224A4444A4IIIIIIIIAIII4IAII4IAI
AAAAAAAAAAAAAAAAAAAAAAA22A2222AA2222A4444A44IIIIIIIAIII4IAII4IAI
AAAAAAAAAAAAAAAAAAAAAAAA2A2222AA2222A4444A444IIIIIIAIII4IAII4IAI
AAAAAAAAAAAAAAAAAAAAAAAAAA2222AA2222A2444A4444IIIIIAIII4IAII4IAI
AAAAAAAAAAAAAAAAAAAAAAAAAA2222AA2222A2244A44444IIIIAIII4IAII4IAI
AAAAAAAAAAAAAAAAAAAAAAAAAAA222AA2222A2224A444444IIIAIII4IAII4IAI
AAAAAAAAAAAAAAAAAAAAAAAAAAAA22AA2222A2222A4444444IIAIII4IAII4IAI
AAAAAAAAAAAAAAAAAAAAAAAAAAAAA2AA2222A2222A44444444IAIII4IAII4IAI
AAAAAAAAAAAAAAAAAAAAAAAAAAAAAAAA2222A2222A244444444AIII4IAII4IAI
AAAAAAAAAAAAAAAAAAAAAAAAAAAAAAAA2222A2222A224444444AIII4IAII4IAI
AAAAAAAAAAAAAAAAAAAAAAAAAAAAAAAA2222A2222A222444444A4II4IAII4IAI
AAAAAAAAAAAAAAAAAAAAAAAAAAAAAAAAA222A2222A222244444A44I4IAII4IAI
AAAAAAAAAAAAAAAAAAAAAAAAAAAAAAAAAA22A2222A222224444A4444IAII4IAI
AAAAAAAAAAAAAAAAAAAAAAAAAAAAAAAAAAA2A2222A222222444A4444IAII4IAI
AAAAAAAAAAAAAAAAAAAAAAAAAAAAAAAAAAAAA2222A222222244A44444AII4IAI
AAAAAAAAAAAAAAAAAAAAAAAAAAAAAAAAAAAAA2222A222222224A44444AII4IAI
AAAAAAAAAAAAAAAAAAAAAAAAAAAAAAAAAAAAAA222A222222222A44444A4I4IAI
AAAAAAAAAAAAAAAAAAAAAAAAAAAAAAAAAAAAAAA22A222222222A44444A444IAI
AAAAAAAAAAAAAAAAAAAAAAAAAAAAAAAAAAAAAAAA2A222222222A24444A444IAI
AAAAAAAAAAAAAAAAAAAAAAAAAAAAAAAAAAAAAAAAAA222222222A22444A4444AI
AAAAAAAAAAAAAAAAAAAAAAAAAAAAAAAAAAAAAAAAAAA22222222A22444A4444A4
AAAAAAAAAAAAAAAAAAAAAAAAAAAAAAAAAAAAAAAAAAAA2222222A22444A4444A4
AAAAAAAAAAAAAAAAAAAAAAAAAAAAAAAAAAAAAAAAAAAAA222222A22444A4444A4
AAAAAAAAAAAAAAAAAAAAAAAAAAAAAAAAAAAAAAAAAAAAAA22222A22244A4444A4
AAAAAAAAAAAAAAAAAAAAAAAAAAAAAAAAAAAAAAAAAAAAAAA2222A22224A4444A4
AAAAAAAAAAAAAAAAAAAAAAAAAAAAAAAAAAAAAAAAAAAAAAAA222A22222A4444A4
AAAAAAAAAAAAAAAAAAAAAAAAAAAAAAAAAAAAAAAAAAAAAAAAA22A22222A4444A4
AAAAAAAAAAAAAAAAAAAAAAAAAAAAAAAAAAAAAAAAAAAAAAAAAA2A22222A2444A4
AAAAAAAAAAAAAAAAAAAAAAAAAAAAAAAAAAAAAAAAAAAAAAAAAAAA22222A2244A4
AAAAAAAAAAAAAAAAAAAAAAAAAAAAAAAAAAAAAAAAAAAAAAAAAAAA22222A2224A4
AAAAAAAAAAAAAAAAAAAAAAAAAAAAAAAAAAAAAAAAAAAAAAAAAAAAA2222A2222A4
AAAAAAAAAAAAAAAAAAAAAAAAAAAAAAAAAAAAAAAAAAAAAAAAAAAAAA222A2222A4
AAAAAAAAAAAAAAAAAAAAAAAAAAAAAAAAAAAAAAAAAAAAAAAAAAAAAAA22A2222A2
AAAAAAAAAAAAAAAAAAAAAAAAAAAAAAAAAAAAAAAAAAAAAAAAAAAAAAAA2A2222A2
AAAAAAAAAAAAAAAAAAAAAAAAAAAAAAAAAAAAAAAAAAAAAAAAAAAAAAAAAA2222A2
AAAAAAAAAAAAAAAAAAAAAAAAAAAAAAAAAAAAAAAAAAAAAAAAAAAAAAAAAAA222A2
AAAAAAAAAAAAAAAAAAAAAAAAAAAAAAAAAAAAAAAAAAAAAAAAAAAAAAAAAAAA22A2
AAAAAAAAAAAAAAAAAAAAAAAAAAAAAAAAAAAAAAAAAAAAAAAAAAAAAAAAAAAAA2A2
AAAAAAAAAAAAAAAAAAAAAAAAAAAAAAAAAAAAAAAAAAAAAAAAAAAAAAAAAAAAAAA2
AAAAAAAAAAAAAAAAAAAAAAAAAAAAAAAAAAAAAAAAAAAAAAAAAAAAAAAAAAAAAAAA
AIAAAAAAAAAAAAAAAAAAAAAAAAAAAAAAAAAAAAAAAAAAAAAAAAAAAAAAAAAAAAAA
AIIAAAAAAAAAAAAAAAAAAAAAAAAAAAAAAAAAAAAAAAAAAAAAAAAAAAAAAAAAAAAA
AIIAIAAAAAAAAAAAAAAAAAAAAAAAAAAAAAAAAAAAAAAAAAAAAAAAAAAAAAAAAAAA
AIIAIIAAAAAAAAAAAAAAAAAAAAAAAAAAAAAAAAAAAAAAAAAAAAAAAAAAAAAAAAAA
AIIAIIIAAAAAAAAAAAAAAAAAAAAAAAAAAAAAAAAAAAAAAAAAAAAAAAAAAAAAAAAA
AIIAIIIIAAAAAAAAAAAAAAAAAAAAAAAAAAAAAAAAAAAAAAAAAAAAAAAAAAAAAAAA
AIIAIIIIIAAAAAAAAAAAAAAAAAAAAAAAAAAAAAAAAAAAAAAAAAAAAAAAAAAAAAAA
AIIAIIIIIIAAAAAAAAAAAAAAAAAAAAAAAAAAAAAAAAAAAAAAAAAAAAAAAAAAAAAA
AIIIIIIIIIAAAAAAAAAAAAAAAAAAAAAAAAAAAAAAAAAAAAAAAAAAAAAAAAAAAAAA
AIIIIIIIIIIAAAAAAAAAAAAAAAAAAAAAAAAAAAAAAAAAAAAAAAAAAAAAAAAAAAAA
AIIIIIIIIIIAAAAAAIAAAAAAAAAAAAAAAAAAAAAAAAAAAAAAAAAAAAAAAAAAAAAA
AIIIIIIIIIIAAAAAAIIAAAAAAAAAAAAAAAAAAAAAAAAAAAAAAAAAAAAAAAAAAAAA
AIIIIIIIIIIAAAAAIIIAAAAAAAAAAAAAAAAAAAAAAAAAAAAAAAAAAAAAAAAAAAAA
AIIIIIIIIIIAAAAAIIIIAAAAAAAAAAAAAAAAAAAAAAAAAAAAAAAAAAAAAAAAAAAA
AIIIIIIIIIIAAAAAIIIIIAAAAAAAAAAAAAAAAAAAAAAAAAAAAAAAAAAAAAAAAAAA
AIIIIIIIIIIAAAAAIIIIIIAAAAAAAAAAAAAAAAAAAAAAAAAAAAAAAAAAAAAAAAAA
AIIIIIIIIIIAAAAAIIIIIIIAAAAAAAAAAAAAAAAAAAAAAAAAAAAAAAAAAAAAAAAA
AIIIIIIIIIIAAAAAIIIIIIIIAAAAAAAAAAAAAAAAAAAAAAAAAAAAAAAAAAAAAAAA
AIIIIIIIIIIAAAAAIIIIIIIIIAAAAAAAAAAAAAAAAAAAAAAAAAAAAAAAAAAAAAAA
AIIIIIIIIIIAAAAAIIIIIIIIIIAAAAAAAAAAAAAAAAAAAAAAAAAAAAAAAAAAAAAA
AIIIIIIIIIIAAAAAIIIIIIIIIIIAAAAAAAAAAAAAAAAAAAAAAAAAAAAAAAAAAAAA
AIIIIIIIIIIAAAAAIIIIIIIIIIIIAAAAAAAAAAAAAAAAAAAAAAAAAAAAAAAAAAAA
AIIIIIIIIIIAAAAAIIIIIIIIIIIIIAAAAAAAAAAAAAAAAAAAAAAAAAAAAAAAAAAA
AIIIIIIIIIIAAAAAIIIIIIIIIIIIIIAAAAAAAAAAAAAAAAAAAAAAAAAAAAAAAAAA
AIIIIIIIIIIAAAAAIIIIIIIIIIIIIIIAAAAAAAAAAAAAAAAAAAAAAAAAAAAAAAAA
AIIIIIIIIIIAAAAAIIIIIIIIIIIIIIIIAAAAAAAAAAAAAAAAAAAAAAAAAAAAAAAA
AIIIIIIIIIIAAAAAIIIIIIIIIIIIIIIIIAAAAAAAAAAAAAAAAAAAAAAAAAAAAAAA
AIIIIIIIIIIAAAAAIIIIIIIIIIIIIIIIIIAAAAAAAAAAAAAAAAAAAAAAAAAAAAAA
AIIIIIIIIIIAAAAAIIIIIIIIIIIIIIIIIIIAAAAAAAAAAAAAAAAAAAAAAAAAAAAA
AIIIIIIIIIIAAAAAIIIIIIIIIIIIIIIIIIIIAAAAAAAAAAAAAAAAAAAAAAAAAAAA
AIIIIIIIIIIAAAAAIIIIIIIIIIIIIIIIIIIIIAAAAAAAAAAAAAAAAAAAAAAAAAAA
AIIIIIIIIIIAAAAAIIIIIIIIIIIIIIIIIIIIIIAAAAAAAAAAAAAAAAAAAAAAAAAA
AIIIIIIIIIIAAAAAIIIIIIIIIIIIIIIIIIIIIIIAAAAAAAAAAAAAAAAAAAAAAAAA
AIIIIIIIIIIAAAAAIIIIIIIIIIIIIIIIIIIIIIIIAAAAAAAAAAAAAAAAAAAAAAAA
AIIIIIIIIIIAAAAAIIIIIIIIIIIIIIIIIIIIIIIIIAAAAAAAAAAAAAAAAAAAAAAA
AIIIIIIIIIIAAAAAIIIIIIIIIIIIIIIIIIIIIIIIIIAAAAAAAAAAAAAAAAAAAAAA
AIIIIIIIIIIAAAAAIIIIIIIIIIIIIIIIIIIIIIIIIIIAAAAAAAAAAAAAAAAAAAAA
AIIIIIIIIIIAAAAAIIIIIIIIIIIIIIIIIIIIIIIIIIIIAAAAAAAAAAAAAAAAAAAA
AIIIIIIIIIIAAAAAIIIIIIIIIIIIIIIIIIIIIIIIIIIIIAAAAAAAAAAAAAAAAAAA
AIIIIIIIIIIAAAAAIIIIIIIIIIIIIIIIIIIIIIIIIIIIIIAAAAAAAAAAAAAAAAAA
AIIIIIIIIIIAAAAAIIIIIIIIIIIIIIIIIIIIIIIIIIIIIIIAAAAAAAAAAAAAAAAA
AIIIIIIIIIIAAAAAIIIIIIIIIIIIIIIIIIIIIIIIIIIIIIIIAAAAAAAAAAAAAAAA
AIIIIIIIIIIAAAAAIIIIIIIIIIIIIIIIIIIIIIIIIIIIIIIIIAAAAAAAAAAAAAAA
AIIIIIIIIIIAAAAAIIIIIIIIIIIIIIIIIIIIIIIIIIIIIIIIIIAAAAAAAAAAAAAA
AIIIIIIIIIIAAAAAIIIIIIIIIIIIIIIIIIIIIIIIIIIIIIIIIIIAAAAAAAAAAAAA
AIIIIIIIIIIAAAAAIIIIIIIIIIIIIIIIIIIIIIIIIIIIIIIIIIIIAAAAAAAAAAAA
AIIIIIIIIIIAAAAAIIIIIIIIIIIIIIIIIIIIIIIIIIIIIIIIIIIIIAAAAAAAAAAA
AIIIIIIIIIIAAAAAIIIIIIIIIIIIIIIIIIIIIIIIIIIIIIIIIIIIIIAAAAAAAAAA
AIIIIIIIIIIAAAAAIIIIIIIIIIIIIIIIIIIIIIIIIIIIIIIIIIIIIIIAAAAAAAAA
AIIIIIIIIIIAAAAAIIIIIIIIIIIIIIIIIIIIIIIIIIIIIIIIIIIIIIIIAAAAAAAA
AIIIIIIIIIIAAAAAIIIIIIIIIIIIIIIIIIIIIIIIIIIIIIIIIIIIIIIIAAAIAAAA
AIIIIIIIIIIAAAAAIIIIIIIIIIIIIIIIIIIIIIIIIIIIIIIIIIIIIIIIAAAIIAAA
AIIIIIIIIIIAAAAAIIIIIIIIIIIIIIIIIIIIIIIIIIIIIIIIIIIIIIIIAAAIIIAA
AIIIIIIIIIIAAAAAIIIIIIIIIIIIIIIIIIIIIIIIIIIIIIIIIIIIIIIIAAAIIIIA
AIIIIIIIIIIAAAAAIIIIIIIIIIIIIIIIIIIIIIIIIIIIIIIIIIIIIIIIAAAIIIII
AIIIIIIIIIIIAAAAIIIIIIIIIIIIIIIIIIIIIIIIIIIIIIIIIIIIIIIIAAAIIIII
AIIIIIIIIIIIIAAAIIIIIIIIIIIIIIIIIIIIIIIIIIIIIIIIIIIIIIIIAAAIIIII
AIIIIIIIIIIIIAIAIIIIIIIIIIIIIIIIIIIIIIIIIIIIIIIIIIIIIIIIAAAIIIII
AIIIIIIIIIIIIAIIIIIIIIIIIIIIIIIIIIIIIIIIIIIIIIIIIIIIIIIIAAAIIIII
AIIIIIIIIIIIIIIIIIIIIIIIIIIIIIIIIIIIIIIIIIIIIIIIIIIIIIIIAAAIIIII
AIIIIIIIIIIIIIIIIIIIIIIIIIIIIIIIIIIIIIIIIIIIIIIIIIIIIIIIIAAIIIII
AIIIIIIIIIIIIIIIIIIIIIIIIIIIIIIIIIIIIIIIIIIIIIIIIIIIIIIIIIAIIIII
AIIIIIIIIIIIIIIIIIIIIIIIIIIIIIIIIIIIIIIIIIIIIIIIIIIIIIIIIIIIIIII
AIIIAIIII4IIIIIIIIIIIIIII4IIII4IIIIIIIIIIIIIII4IIIIIIIIIIIIIIIII
AIIIAIIII4AIIII4IIIIIIIII4IIII44IIII4IIIIIIIII4IIIII4IIIIIIIIIII
AIIIAIIII4AIIIIAIIII4IIII4IIII44IIII4IIII4IIII4IIIII4IIII4IIIIII
AIIIAIIII4AIIIIAIIIIAIIII4IIII44IIII4IIII4IIII4IIIII4IIII4IIII4I
AIIIAIIII4AIIIIAIIIIAIIIIAIIII44IIII4IIII4IIII4IIII44IIII4IIII4I
AIIIAIIII4AIIIIAIIIIAIIIIAIIII4AIIII4IIII4IIII4IIII44IIII4IIII4I
AIIIAIIII4AIIIIAIIIIAIIIIAIIII4AIIIIAIIII4IIII4IIII44IIII4IIII4I
AIIIAIIII4AIIIIAIIIIAIIIIAIIII4AIIIIAIIIIAIIII4IIII44IIII4IIII4I
AIIIAIIII4AIIIIAIIIIAIIIIAIIII4AIIIIAIIIIAIIIIAIIII44IIII4IIII4I
AIIIAIIII4AIIIIAIIIIAIIIIAIIII4AIIIIAIIIIAIIIIAIIII4AIIII4IIII4I
AIIIAIIII4AIIIIAIIIIAIIIIAIIII4AIIIIAIIIIAIIIIAIIII4AIIIIAIIII4I
AIIIAIIII4AIIIIAIIIIAIIIIAIIII4AIIIIAIIIIAIIIIAIIII4AIIIIAIIIIAI
AIIIAIIII2AIIIIAIIIIAIIIIAIIII4AIIIIAIIIIAIIIIAIIII4AIIIIAIIIIAI
AIIIAIIIIAAIII2AIIIIAIIIIAIIII4AIII4AIIIIAIIIIAIIII4AIIIIAIIIIAI
AIIIAIIIIAAIIIAAIII2AIIIIAIIII4AIII4AIII4AIIIIAIIII4AIII4AIIIIAI
AIIIAIIIIAAIIIAAIIIAAIII2AIIII4AIII4AIII4AIII4AIIII4AIII4AIII4AI
AIIIAIIIIAAIIIAAIIIAAIII2AIIII2AIII4AIII4AIII4AIIII4AIII4AIII4AI
AIIIAIIIIAAIIIAAIIIAAIII2AIIIIAAIII2AIII4AIII4AIIII4AIII4AIII4AI
AIIIAIIIIAAIIIAAIIIAAIII2AIIIIAAIIIAAIII2AIII4AIIII4AIII4AIII4AI
AIIIAIIIIAAIIIAAIIIAAIII2AIIIIAAIIIAAIIIAAIII2AIIII4AIII4AIII4AI
AIIIAIIIIAAIIIAAIIIAAIII2AIIIIAAIIIAAIIIAAIII2AIIII2AIII4AIII4AI
AIIIAIIIIAAIIIAAIIIAAIII2AIIIIAAIIIAAIIIAAIII2AIIIIAAIII2AIII4AI
AIIIAIIIIAAIIIAAIIIAAIII2AIIIIAAIIIAAIIIAAIII2AIIIIAAIIIAAIII2AI
AIIIAIIIIAAIIIAAIIIAAIII2AIIIIAAIIIAAIIIAAIII2AIIIIAAIIIAAIIIAAI
AIIIAIIIIAAIIIAAIIIAAIII2AIIIIAAIIIIAIIIAAIII2AIIIIAAIIIAAIIIAAI
A222A222IAAIIIAAIIIAAIII2AIIIIAAIIIIAIIIAAIII2AIIIIAAIIIAAIIIAAI
AA22A2222AA2IIAAIIIAAIII2AIIIIAAIIIIAIIIAAIII2AIIIIAAIIIAAIIIAAI
AAA2A2222AA222AA222AAIII2AIIIIAAIIIIAIIIAAIII2AIIIIAAIIIAAIIIAAI
AAAAA2222AA222AA222AAIII2AIIIIAAIIIIAIIIAAIII2AIIIIAAIIIAAIIIAAI
AAAAAA222AA222AA222AA2II2AIIIIAAIIIIAIIIAAIII2AIIIIAAIIIAAIIIAAI
AAAAAAA22AA222AA222AA22I2AIIIIAAIIIIAIIIAAIII2AIIIIAAIIIAAIIIAAI
AAAAAAAA2AA222AA222AA2222AIIIIAAIIIIAIIIAAIII2AIIIIAAIIIAAIIIAAI
AAAAAAAAAAA222AA222AA2222AIIIIAAIIIIAIIIAAIII2AIIIIAAIIIAAIIIAAI
AAAAAAAAAAA222AA222AA2222A2IIIAAIIIIAIIIAAIII2AIIIIAAIIIAAIIIAAI
AAAAAAAAAAAA22AA222AA2222A22IIAAIIIIAIIIAAIII2AIIIIAAIIIAAIIIAAI
AAAAAAAAAAAAA2AA222AA2222A222IAAIIIIAIIIAAIII2AIIIIAAIIIAAIIIAAI
AAAAAAAAAAAAAAAA222AA2222A2222AAIIIIAIIIAAIII2AIIIIAAIIIAAIIIAAI
AAAAAAAAAAAAAAAAA22AA2222A2222AA2IIIAIIIAAIII2AIIIIAAIIIAAIIIAAI
AAAAAAAAAAAAAAAAAA2AA2222A2222AA22IIAIIIAAIII2AIIIIAAIIIAAIIIAAI
AAAAAAAAAAAAAAAAAAAAA2222A2222AA222IAIIIAAIII2AIIIIAAIIIAAIIIAAI
AAAAAAAAAAAAAAAAAAAAA2222A2222AA2222AIIIAAIII2AIIIIAAIIIAAIIIAAI
AAAAAAAAAAAAAAAAAAAAAA222A2222AA2222A2IIAAIII2AIIIIAAIIIAAIIIAAI
AAAAAAAAAAAAAAAAAAAAAAA22A2222AA2222A22IAAIII2AIIIIAAIIIAAIIIAAI
AAAAAAAAAAAAAAAAAAAAAAAA2A2222AA2222A222AAIII2AIIIIAAIIIAAIIIAAI
AAAAAAAAAAAAAAAAAAAAAAAAAA2222AA2222A222AAIII2AIIIIAAIIIAAIIIAAI
AAAAAAAAAAAAAAAAAAAAAAAAAAA222AA2222A222AA2II2AIIIIAAIIIAAIIIAAI
AAAAAAAAAAAAAAAAAAAAAAAAAAAA22AA2222A222AA22I2AIIIIAAIIIAAIIIAAI
AAAAAAAAAAAAAAAAAAAAAAAAAAAAA2AA2222A222AA2222AIIIIAAIIIAAIIIAAI
AAAAAAAAAAAAAAAAAAAAAAAAAAAAAAAA2222A222AA2222AIIIIAAIIIAAIIIAAI
AAAAAAAAAAAAAAAAAAAAAAAAAAAAAAAA2222A222AA2222A2IIIAAIIIAAIIIAAI
AAAAAAAAAAAAAAAAAAAAAAAAAAAAAAAAA222A222AA2222A22IIAAIIIAAIIIAAI
AAAAAAAAAAAAAAAAAAAAAAAAAAAAAAAAAA22A222AA2222A222IAAIIIAAIIIAAI
AAAAAAAAAAAAAAAAAAAAAAAAAAAAAAAAAAA2A222AA2222A2222AAIIIAAIIIAAI
AAAAAAAAAAAAAAAAAAAAAAAAAAAAAAAAAAAAA222AA2222A2222AAIIIAAIIIAAI
AAAAAAAAAAAAAAAAAAAAAAAAAAAAAAAAAAAAAA22AA2222A2222AA2IIAAIIIAAI
AAAAAAAAAAAAAAAAAAAAAAAAAAAAAAAAAAAAAAA2AA2222A2222AA22IAAIIIAAI
AAAAAAAAAAAAAAAAAAAAAAAAAAAAAAAAAAAAAAAAAA2222A2222AA222AAIIIAAI
AAAAAAAAAAAAAAAAAAAAAAAAAAAAAAAAAAAAAAAAAAA222A2222AA222AA2IIAAI
AAAAAAAAAAAAAAAAAAAAAAAAAAAAAAAAAAAAAAAAAAAA22A2222AA222AA22IAAI
AAAAAAAAAAAAAAAAAAAAAAAAAAAAAAAAAAAAAAAAAAAAA2A2222AA222AA222AAI
AAAAAAAAAAAAAAAAAAAAAAAAAAAAAAAAAAAAAAAAAAAAAAA2222AA222AA222AAI
AAAAAAAAAAAAAAAAAAAAAAAAAAAAAAAAAAAAAAAAAAAAAAAA222AA222AA222AA2
AAAAAAAAAAAAAAAAAAAAAAAAAAAAAAAAAAAAAAAAAAAAAAAAA22AA222AA222AA2
AAAAAAAAAAAAAAAAAAAAAAAAAAAAAAAAAAAAAAAAAAAAAAAAAA2AA222AA222AA2
AAAAAAAAAAAAAAAAAAAAAAAAAAAAAAAAAAAAAAAAAAAAAAAAAAAAA222AA222AA2
AAAAAAAAAAAAAAAAAAAAAAAAAAAAAAAAAAAAAAAAAAAAAAAAAAAAAA22AA222AA2
AAAAAAAAAAAAAAAAAAAAAAAAAAAAAAAAAAAAAAAAAAAAAAAAAAAAAAA2AA222AA2
AAAAAAAAAAAAAAAAAAAAAAAAAAAAAAAAAAAAAAAAAAAAAAAAAAAAAAAAAA222AA2
AAAAAAAAAAAAAAAAAAAAAAAAAAAAAAAAAAAAAAAAAAAAAAAAAAAAAAAAAAA22AA2
AAAAAAAAAAAAAAAAAAAAAAAAAAAAAAAAAAAAAAAAAAAAAAAAAAAAAAAAAAAA2AA2
AAAAAAAAAAAAAAAAAAAAAAAAAAAAAAAAAAAAAAAAAAAAAAAAAAAAAAAAAAAAAAA2
AAAAAAAAAAAAAAAAAAAAAAAAAAAAAAAAAAAAAAAAAAAAAAAAAAAAAAAAAAAAAAAA
AAAAAIAAAAAAAAAAAAAAAAAAAAAAAAAAAAAAAAAAAAAAAAAAAAAAAAAAAAAAAAAA
AAAAAIAAAAAIAAAAAAAAAAAAAAAAAAAAAAAAAAAAAAAAAAAAAAAAAAAAAAAAAAAA
AIAAAIAAAAAIAAAAAAAAAAAAAAAAAAAAAAAAAAAAAAAAAAAAAAAAAAAAAAAAAAAA
AIAAAIIAAAAIAAAAAAAAAAAAAAAAAAAAAAAAAAAAAAAAAAAAAAAAAAAAAAAAAAAA
AIAAAIIAAAAIAAAAIAAAAAAAAAAAAAAAAAAAAAAAAAAAAAAAAAAAAAAAAAAAAAAA
AIAAAIIAAAAIAAAAIIAAAAAAAAAAAAAAAAAAAAAAAAAAAAAAAAAAAAAAAAAAAAAA
AIAAAIIAAAAIAAAAIIAIAAAAAAAAAAAAAAAAAAAAAAAAAAAAAAAAAAAAAAAAAAAA
AIAAAIIAAAAIAAAAIIAIAIAAAAAAAAAAAAAAAAAAAAAAAAAAAAAAAAAAAAAAAAAA
AIAAAIIAAAAIAAAAIIAIAIIAAAAAAAAAAAAAAAAAAAAAAAAAAAAAAAAAAAAAAAAA
AIAAAIIAAAAIAAAAIIAIAIIAAAIAAAAAAAAAAAAAAAAAAAAAAAAAAAAAAAAAAAAA
AIAAAIIAAAAIAAAAIIAIAIIAAAIIAAAAAAAAAAAAAAAAAAAAAAAAAAAAAAAAAAAA
AIAAAIIAAAAIAAAAIIAIAIIAAAIIAAAAIAAAAAAAAAAAAAAAAAAAAAAAAAAAAAAA
AIAAAIIAAAAIAAAAIIAIAIIAAAIIAAAAIAIAAAAAAAAAAAAAAAAAAAAAAAAAAAAA
AIAAAIIAAAAIAAAAIIAIAIIAAAIIAAAAIAIIAAAAAAAAAAAAAAAAAAAAAAAAAAAA
AIAAAIIAAAAIAAAAIIAIAIIAAAIIAAAAIAIIAIAAAAAAAAAAAAAAAAAAAAAAAAAA
AIAAAIIAAAAIAAAAIIAIAIIAAAIIAAAAIAIIAIIAAAAAAAAAAAAAAAAAAAAAAAAA
AIAAAIIAAAAIAAAAIIAIAIIAAAIIAAAAIAIIAIIAAAIAAAAAAAAAAAAAAAAAAAAA
AIAAAIIAAAAIAAAAIIAIAIIAAAIIAAAAIAIIAIIAAAIIAAAAAAAAAAAAAAAAAAAA
AIAAAIIAAAAIAAAAIIAIAIIAAAIIAAAAIAIIAIIAAAIIAAIAAAAAAAAAAAAAAAAA
AIAAAIIAAAAIAAAAIIAIAIIAAAIIAAAAIAIIAIIAAAIIIAIAAAAAAAAAAAAAAAAA
AIAAAIIAAAAIAAAAIIAIAIIAAAIIAAAAIAIIAIIAAAIIIAIAIAAAAAAAAAAAAAAA
AIAAAIIAAAAIAAAAIIAIAIIAAAIIAAAAIAIIAIIAAAIIIAIIIAAAAAAAAAAAAAAA
AIAAAIIAAAAIAAAAIIAIAIIAAAIIAAAAIAIIAIIAAAIIIAIIIAAAAIAAAAAAAAAA
AIAAAIIAAAAIAAAAIIAIAIIAAAIIAAAAIAIIAIIAAAIIIAIIIAAAAIAAAAIAAAAA
AIAAAIIAAAAIAAAAIIAIAIIAAAIIAAAAIAIIAIIAAAIIIAIIIAAAAIAAAAIIAAAA
AIAAAIIAAAAIAAAAIIAIAIIAAAIIAAAAIAIIAIIAAAIIIAIIIAAAAIAAAAIIAAAI
AIAAIIIAAAAIAAAAIIAIAIIAAAIIAAAAIAIIAIIAAAIIIAIIIAAAAIAAAAIIAAAI
AIAAIIIAAIAIAAAAIIAIAIIAAAIIAAAAIAIIAIIAAAIIIAIIIAAAAIAAAAIIAAAI
AIAAIIIAAIAIAAIAIIAIAIIAAAIIAAAAIAIIAIIAAAIIIAIIIAAAAIAAAAIIAAAI
AIAAIIIAAIAIAAIIIIAIAIIAAAIIAAAAIAIIAIIAAAIIIAIIIAAAAIAAAAIIAAAI
AIAAIIIAAIIIAAIIIIAIAIIAAAIIAAAAIAIIAIIAAAIIIAIIIAAAAIAAAAIIAAAI
AIAAIIIAAIIIAAIIIIAIIIIAAAIIAAAAIAIIAIIAAAIIIAIIIAAAAIAAAAIIAAAI
AIAAIIIAAIIIAAIIIIAIIIIAAIIIAAAAIAIIAIIAAAIIIAIIIAAAAIAAAAIIAAAI
AIAAIIIAAIIIAAIIIIAIIIIAIIIIAAAAIAIIAIIAAAIIIAIIIAAAAIAAAAIIAAAI
AIAAIIIAAIIIAAIIIIAIIIIAIIIIAAIAIAIIAIIAAAIIIAIIIAAAAIAAAAIIAAAI
AIAAIIIAAIIIAAIIIIAIIIIAIIIIAAIIIAIIAIIAAAIIIAIIIAAAAIAAAAIIAAAI
AIAAIIIAAIIIAAIIIIAIIIIAIIIIAAIIIAIIIIIAAAIIIAIIIAAAAIAAAAIIAAAI
AIAAIIIAAIIIAAIIIIAIIIIAIIIIAAIIIAIIIIIAIAIIIAIIIAAAAIAAAAIIAAAI
AIAAIIIAAIIIAAIIIIAIIIIAIIIIAAIIIAIIIIIAIIIIIAIIIAAAAIAAAAIIAAAI
AIAAIIIAAIIIAAIIIIAIIIIAIIIIAAIIIAIIIIIAIIIIIIIIIAAAAIAAAAIIAAAI
AIAAIIIAAIIIAAIIIIAIIIIAIIIIAAIIIAIIIIIAIIIIIIIIIAAIAIAAAAIIAAAI
AIAAIIIAAIIIAAIIIIAIIIIAIIIIAAIIIAIIIIIAIIIIIIIIIAAIIIAAAAIIAAAI
AIAAIIIAAIIIAAIIIIAIIIIAIIIIAAIIIAIIIIIAIIIIIIIIIAAIIIAAIAIIAAAI
AIAAIIIAAIIIAAIIIIAIIIIAIIIIAAIIIAIIIIIAIIIIIIIIIAAIIIAAIIIIAAAI
AIAAIIIAAIIIAAIIIIAIIIIAIIIIAAIIIAIIIIIAIIIIIIIIIAAIIIAAIIIIAIAI
AIAAIIIAAIIIAAIIIIAIIIIAIIIIAAIIIAIIIIIAIIIIIIIIIAAIIIAAIIIIAIII
[MLOP] Prefetch Degree Mean: 15.36322
[MLOP] Prefetch Degree SD: 2.55698
[MLOP] Max Score Left Mean (%): 65.59507
[MLOP] Max Score Left SD (%): 12.55560
[MLOP] Max Score Right Mean (%): 97.82225
[MLOP] Max Score Right SD (%): 4.93323

Channel_0_RQ_row_buffer_hit 666350
Channel_0_RQ_row_buffer_miss 1070892
Channel_0_WQ_row_buffer_hit 129761
Channel_0_WQ_row_buffer_miss 454422
Channel_0_WQ_full 1501
Channel_0_dbus_congested 1420723

avg_congested_cycle 10

DRAM_bw_pochs 495201
DRAM_bw_level_0 266344
DRAM_bw_level_1 103027
DRAM_bw_level_2 54681
DRAM_bw_level_3 71149
