*************************************************
   ChampSim Multicore Out-of-Order Simulator
   Last compiled: Feb  6 2025 20:33:19
*************************************************
parsing config file: /home/wzz/Pythia/config/spp_dev2.ini

trace_0 /home/wzz/Pythia/traces/623.xalancbmk_s-10B.champsimtrace.xz
adding L2C_PREFETCHER: SPP_dev2
Initialize SIGNATURE TABLE
ST_SET: 1
ST_WAY: 256
ST_TAG_BIT: 16
ST_TAG_MASK: ffff

Initialize PATTERN TABLE
PT_SET: 512
PT_WAY: 4
SIG_DELTA_BIT: 7
C_SIG_BIT: 4
C_DELTA_BIT: 4

Initialize PREFETCH FILTER
FILTER_SET: 1024
fill_threshold: 90
pf_threshold: 40

Initialize SHIP state
warmup_instructions 40000000
simulation_instructions 100000000
champsim_seed 163
measure_ipc 0
measure_ipc_epoch 1000
measure_dram_bw 1
measure_dram_bw_epoch 256
measure_cache_acc 1
measure_cache_acc_epoch 1024
l1d_perfect 0
l2c_perfect 0
llc_perfect 0
l1d_semi_perfect 0
l2c_semi_perfect 0
llc_semi_perfect 0
semi_perfect_cache_page_buffer_size 64

num_cpus 1
cpu_freq 4000
dram_io_freq 2400
page_size 4096
block_size 64
max_read_per_cycle 8
max_fill_per_cycle 1
dram_channels 1
log2_dram_channels 0
dram_ranks 1
dram_banks 8
dram_rows 65536
dram_columns 128
dram_row_size 8
dram_size 4096
dram_pages 1048576

fetch_width 6
decode_width 6
exec_width 4
lq_width 2
sq_width 2
retire_width 4
scheduler_size 128
branch_mispredict_penalty 20
rob_size 256
lq_size 72
sq_size 56
num_instr_destinations_sparc 4
num_instr_destinations 2
num_instr_sources 4

itlb_set 16
itlb_way 8
itlb_rq_size 16
itlb_wq_size 16
itlb_pq_size 0
itlb_mshr_size 8
itlb_latency 1

dtlb_set 16
dtlb_way 4
dtlb_rq_size 16
dtlb_wq_size 16
dtlb_pq_size 0
dtlb_mshr_size 8
dtlb_latency 1

stlb_set 128
stlb_way 12
stlb_rq_size 32
stlb_wq_size 32
stlb_pq_size 0
stlb_mshr_size 16
stlb_latency 8

l1i_size 32
l1i_set 64
l1i_way 8
l1i_rq_size 64
l1i_wq_size 64
l1i_pq_size 8
l1i_mshr_size 8
l1i_latency 1

l1d_size 32
l1d_set 64
l1d_way 8
l1d_rq_size 64
l1d_wq_size 64
l1d_pq_size 8
l1d_mshr_size 16
l1d_latency 4

l2c_size 256
l2c_set 512
l2c_way 8
l2c_rq_size 32
l2c_wq_size 32
l2c_pq_size 32
l2c_mshr_size 32
l2c_latency 10

llc_size 2048
llc_set 2048
llc_way 16
llc_rq_size 32
llc_wq_size 32
llc_pq_size 32
llc_mshr_size 64
llc_latency 20

dram_channel_width 8
dram_wq_size 64
dram_rq_size 64
tRP 15
tRCD 15
tCAS 12.5
dram_dbus_turn_around_time 30
dram_write_high_wm 56
dram_write_low_wm 48
min_dram_writes_per_switch 16
dram_mtps 2400
dram_dbus_return_time 13


Heartbeat CPU  0 instructions:    1000001 cycles:     607472 heartbeat IPC: 1.64617 cumulative IPC: 1.64617 (Simulation time: 0 hr 0 min 4 sec) 
Heartbeat CPU  0 instructions:    2000002 cycles:    1112121 heartbeat IPC: 1.98158 cumulative IPC: 1.79837 (Simulation time: 0 hr 0 min 8 sec) 
Heartbeat CPU  0 instructions:    3000002 cycles:    1680362 heartbeat IPC: 1.75982 cumulative IPC: 1.78533 (Simulation time: 0 hr 0 min 12 sec) 
Heartbeat CPU  0 instructions:    4000000 cycles:    2244676 heartbeat IPC: 1.77206 cumulative IPC: 1.78199 (Simulation time: 0 hr 0 min 16 sec) 
Heartbeat CPU  0 instructions:    5000001 cycles:    2700558 heartbeat IPC: 2.19355 cumulative IPC: 1.85147 (Simulation time: 0 hr 0 min 20 sec) 
Heartbeat CPU  0 instructions:    6000000 cycles:    3246619 heartbeat IPC: 1.83130 cumulative IPC: 1.84808 (Simulation time: 0 hr 0 min 24 sec) 
Heartbeat CPU  0 instructions:    7000000 cycles:    3753789 heartbeat IPC: 1.97173 cumulative IPC: 1.86478 (Simulation time: 0 hr 0 min 27 sec) 
Heartbeat CPU  0 instructions:    8000000 cycles:    4266876 heartbeat IPC: 1.94899 cumulative IPC: 1.87491 (Simulation time: 0 hr 0 min 32 sec) 
Heartbeat CPU  0 instructions:    9000001 cycles:    4804148 heartbeat IPC: 1.86126 cumulative IPC: 1.87338 (Simulation time: 0 hr 0 min 35 sec) 
Heartbeat CPU  0 instructions:   10000001 cycles:    5324722 heartbeat IPC: 1.92096 cumulative IPC: 1.87803 (Simulation time: 0 hr 0 min 40 sec) 
Heartbeat CPU  0 instructions:   11000000 cycles:    5830073 heartbeat IPC: 1.97882 cumulative IPC: 1.88677 (Simulation time: 0 hr 0 min 43 sec) 
Heartbeat CPU  0 instructions:   12000000 cycles:    6342632 heartbeat IPC: 1.95099 cumulative IPC: 1.89196 (Simulation time: 0 hr 0 min 48 sec) 
Heartbeat CPU  0 instructions:   13000000 cycles:    6843481 heartbeat IPC: 1.99661 cumulative IPC: 1.89962 (Simulation time: 0 hr 0 min 51 sec) 
Heartbeat CPU  0 instructions:   14000001 cycles:    7386327 heartbeat IPC: 1.84214 cumulative IPC: 1.89539 (Simulation time: 0 hr 0 min 55 sec) 
Heartbeat CPU  0 instructions:   15000002 cycles:    7843311 heartbeat IPC: 2.18826 cumulative IPC: 1.91246 (Simulation time: 0 hr 1 min 0 sec) 
Heartbeat CPU  0 instructions:   16000000 cycles:    8397376 heartbeat IPC: 1.80484 cumulative IPC: 1.90536 (Simulation time: 0 hr 1 min 3 sec) 
Heartbeat CPU  0 instructions:   17000000 cycles:    8934161 heartbeat IPC: 1.86294 cumulative IPC: 1.90281 (Simulation time: 0 hr 1 min 7 sec) 
Heartbeat CPU  0 instructions:   18000000 cycles:    9425702 heartbeat IPC: 2.03442 cumulative IPC: 1.90967 (Simulation time: 0 hr 1 min 12 sec) 
Heartbeat CPU  0 instructions:   19000003 cycles:    9966281 heartbeat IPC: 1.84987 cumulative IPC: 1.90643 (Simulation time: 0 hr 1 min 15 sec) 
Heartbeat CPU  0 instructions:   20000000 cycles:   10485801 heartbeat IPC: 1.92485 cumulative IPC: 1.90734 (Simulation time: 0 hr 1 min 20 sec) 
Heartbeat CPU  0 instructions:   21000000 cycles:   10993146 heartbeat IPC: 1.97105 cumulative IPC: 1.91028 (Simulation time: 0 hr 1 min 24 sec) 
Heartbeat CPU  0 instructions:   22000000 cycles:   11563440 heartbeat IPC: 1.75348 cumulative IPC: 1.90255 (Simulation time: 0 hr 1 min 28 sec) 
Heartbeat CPU  0 instructions:   23000003 cycles:   12020196 heartbeat IPC: 2.18936 cumulative IPC: 1.91345 (Simulation time: 0 hr 1 min 32 sec) 
Heartbeat CPU  0 instructions:   24000000 cycles:   12629449 heartbeat IPC: 1.64135 cumulative IPC: 1.90032 (Simulation time: 0 hr 1 min 36 sec) 
Heartbeat CPU  0 instructions:   25000000 cycles:   13084305 heartbeat IPC: 2.19850 cumulative IPC: 1.91069 (Simulation time: 0 hr 1 min 40 sec) 
Heartbeat CPU  0 instructions:   26000003 cycles:   13686793 heartbeat IPC: 1.65979 cumulative IPC: 1.89964 (Simulation time: 0 hr 1 min 44 sec) 
Heartbeat CPU  0 instructions:   27000001 cycles:   14158597 heartbeat IPC: 2.11952 cumulative IPC: 1.90697 (Simulation time: 0 hr 1 min 48 sec) 
Heartbeat CPU  0 instructions:   28000000 cycles:   14713115 heartbeat IPC: 1.80337 cumulative IPC: 1.90306 (Simulation time: 0 hr 1 min 52 sec) 
Heartbeat CPU  0 instructions:   29000003 cycles:   15196518 heartbeat IPC: 2.06867 cumulative IPC: 1.90833 (Simulation time: 0 hr 1 min 56 sec) 
Heartbeat CPU  0 instructions:   30000000 cycles:   15734604 heartbeat IPC: 1.85843 cumulative IPC: 1.90663 (Simulation time: 0 hr 2 min 0 sec) 
Heartbeat CPU  0 instructions:   31000000 cycles:   16299363 heartbeat IPC: 1.77067 cumulative IPC: 1.90191 (Simulation time: 0 hr 2 min 4 sec) 
Heartbeat CPU  0 instructions:   32000000 cycles:   16807591 heartbeat IPC: 1.96762 cumulative IPC: 1.90390 (Simulation time: 0 hr 2 min 8 sec) 
Heartbeat CPU  0 instructions:   33000001 cycles:   17340509 heartbeat IPC: 1.87646 cumulative IPC: 1.90306 (Simulation time: 0 hr 2 min 12 sec) 
Heartbeat CPU  0 instructions:   34000000 cycles:   17795862 heartbeat IPC: 2.19610 cumulative IPC: 1.91056 (Simulation time: 0 hr 2 min 16 sec) 
Heartbeat CPU  0 instructions:   35000000 cycles:   18358933 heartbeat IPC: 1.77597 cumulative IPC: 1.90643 (Simulation time: 0 hr 2 min 20 sec) 
Heartbeat CPU  0 instructions:   36000000 cycles:   18837446 heartbeat IPC: 2.08981 cumulative IPC: 1.91109 (Simulation time: 0 hr 2 min 24 sec) 
Heartbeat CPU  0 instructions:   37000000 cycles:   19420632 heartbeat IPC: 1.71472 cumulative IPC: 1.90519 (Simulation time: 0 hr 2 min 28 sec) 
Heartbeat CPU  0 instructions:   38000000 cycles:   19921517 heartbeat IPC: 1.99647 cumulative IPC: 1.90749 (Simulation time: 0 hr 2 min 32 sec) 
Heartbeat CPU  0 instructions:   39000002 cycles:   20478868 heartbeat IPC: 1.79421 cumulative IPC: 1.90440 (Simulation time: 0 hr 2 min 35 sec) 
Heartbeat CPU  0 instructions:   40000000 cycles:   21031465 heartbeat IPC: 1.80963 cumulative IPC: 1.90191 (Simulation time: 0 hr 2 min 39 sec) 

Warmup complete CPU  0 instructions:   40000002 cycles:   21031466 (Simulation time: 0 hr 2 min 39 sec) 

Heartbeat CPU  0 instructions:   41000002 cycles:   24904835 heartbeat IPC: 0.25817 cumulative IPC: 0.25817 (Simulation time: 0 hr 2 min 46 sec) 
Heartbeat CPU  0 instructions:   42000000 cycles:   27651342 heartbeat IPC: 0.36410 cumulative IPC: 0.30212 (Simulation time: 0 hr 2 min 51 sec) 
Heartbeat CPU  0 instructions:   43000002 cycles:   31513104 heartbeat IPC: 0.25895 cumulative IPC: 0.28621 (Simulation time: 0 hr 2 min 58 sec) 
Heartbeat CPU  0 instructions:   44000000 cycles:   34694604 heartbeat IPC: 0.31432 cumulative IPC: 0.29276 (Simulation time: 0 hr 3 min 4 sec) 
Heartbeat CPU  0 instructions:   45000002 cycles:   38490205 heartbeat IPC: 0.26346 cumulative IPC: 0.28639 (Simulation time: 0 hr 3 min 11 sec) 
Heartbeat CPU  0 instructions:   46000001 cycles:   41789737 heartbeat IPC: 0.30307 cumulative IPC: 0.28904 (Simulation time: 0 hr 3 min 17 sec) 
Heartbeat CPU  0 instructions:   47000002 cycles:   45051910 heartbeat IPC: 0.30654 cumulative IPC: 0.29142 (Simulation time: 0 hr 3 min 23 sec) 
Heartbeat CPU  0 instructions:   48000000 cycles:   48733700 heartbeat IPC: 0.27161 cumulative IPC: 0.28879 (Simulation time: 0 hr 3 min 30 sec) 
Heartbeat CPU  0 instructions:   49000002 cycles:   52046386 heartbeat IPC: 0.30187 cumulative IPC: 0.29018 (Simulation time: 0 hr 3 min 36 sec) 
Heartbeat CPU  0 instructions:   50000001 cycles:   55813447 heartbeat IPC: 0.26546 cumulative IPC: 0.28751 (Simulation time: 0 hr 3 min 42 sec) 
Heartbeat CPU  0 instructions:   51000000 cycles:   57924652 heartbeat IPC: 0.47366 cumulative IPC: 0.29816 (Simulation time: 0 hr 3 min 47 sec) 
Heartbeat CPU  0 instructions:   52000000 cycles:   61854357 heartbeat IPC: 0.25447 cumulative IPC: 0.29395 (Simulation time: 0 hr 3 min 54 sec) 
Heartbeat CPU  0 instructions:   53000001 cycles:   65051178 heartbeat IPC: 0.31281 cumulative IPC: 0.29532 (Simulation time: 0 hr 4 min 0 sec) 
Heartbeat CPU  0 instructions:   54000001 cycles:   68704536 heartbeat IPC: 0.27372 cumulative IPC: 0.29367 (Simulation time: 0 hr 4 min 7 sec) 
Heartbeat CPU  0 instructions:   55000002 cycles:   72396456 heartbeat IPC: 0.27086 cumulative IPC: 0.29203 (Simulation time: 0 hr 4 min 13 sec) 
Heartbeat CPU  0 instructions:   56000000 cycles:   75443196 heartbeat IPC: 0.32822 cumulative IPC: 0.29405 (Simulation time: 0 hr 4 min 19 sec) 
Heartbeat CPU  0 instructions:   57000002 cycles:   79245440 heartbeat IPC: 0.26300 cumulative IPC: 0.29203 (Simulation time: 0 hr 4 min 26 sec) 
Heartbeat CPU  0 instructions:   58000000 cycles:   82258477 heartbeat IPC: 0.33189 cumulative IPC: 0.29399 (Simulation time: 0 hr 4 min 32 sec) 
Heartbeat CPU  0 instructions:   59000000 cycles:   84892942 heartbeat IPC: 0.37958 cumulative IPC: 0.29752 (Simulation time: 0 hr 4 min 38 sec) 
Heartbeat CPU  0 instructions:   60000000 cycles:   88897447 heartbeat IPC: 0.24972 cumulative IPC: 0.29470 (Simulation time: 0 hr 4 min 44 sec) 
Heartbeat CPU  0 instructions:   61000002 cycles:   92047651 heartbeat IPC: 0.31744 cumulative IPC: 0.29571 (Simulation time: 0 hr 4 min 50 sec) 
Heartbeat CPU  0 instructions:   62000002 cycles:   95770000 heartbeat IPC: 0.26865 cumulative IPC: 0.29436 (Simulation time: 0 hr 4 min 57 sec) 
Heartbeat CPU  0 instructions:   63000003 cycles:   98575662 heartbeat IPC: 0.35642 cumulative IPC: 0.29661 (Simulation time: 0 hr 5 min 3 sec) 
Heartbeat CPU  0 instructions:   64000000 cycles:  102373494 heartbeat IPC: 0.26331 cumulative IPC: 0.29505 (Simulation time: 0 hr 5 min 9 sec) 
Heartbeat CPU  0 instructions:   65000000 cycles:  105331198 heartbeat IPC: 0.33810 cumulative IPC: 0.29656 (Simulation time: 0 hr 5 min 15 sec) 
Heartbeat CPU  0 instructions:   66000001 cycles:  109098267 heartbeat IPC: 0.26546 cumulative IPC: 0.29523 (Simulation time: 0 hr 5 min 22 sec) 
Heartbeat CPU  0 instructions:   67000001 cycles:  111012191 heartbeat IPC: 0.52249 cumulative IPC: 0.30006 (Simulation time: 0 hr 5 min 27 sec) 
Heartbeat CPU  0 instructions:   68000000 cycles:  114543922 heartbeat IPC: 0.28315 cumulative IPC: 0.29943 (Simulation time: 0 hr 5 min 33 sec) 
Heartbeat CPU  0 instructions:   69000000 cycles:  117578316 heartbeat IPC: 0.32956 cumulative IPC: 0.30037 (Simulation time: 0 hr 5 min 39 sec) 
Heartbeat CPU  0 instructions:   70000000 cycles:  121483885 heartbeat IPC: 0.25604 cumulative IPC: 0.29865 (Simulation time: 0 hr 5 min 46 sec) 
Heartbeat CPU  0 instructions:   71000001 cycles:  124329522 heartbeat IPC: 0.35142 cumulative IPC: 0.30010 (Simulation time: 0 hr 5 min 52 sec) 
Heartbeat CPU  0 instructions:   72000000 cycles:  127214375 heartbeat IPC: 0.34664 cumulative IPC: 0.30137 (Simulation time: 0 hr 5 min 57 sec) 
Heartbeat CPU  0 instructions:   73000002 cycles:  130902723 heartbeat IPC: 0.27112 cumulative IPC: 0.30035 (Simulation time: 0 hr 6 min 4 sec) 
Heartbeat CPU  0 instructions:   74000002 cycles:  133344371 heartbeat IPC: 0.40956 cumulative IPC: 0.30273 (Simulation time: 0 hr 6 min 9 sec) 
Heartbeat CPU  0 instructions:   75000001 cycles:  137275590 heartbeat IPC: 0.25437 cumulative IPC: 0.30109 (Simulation time: 0 hr 6 min 16 sec) 
Heartbeat CPU  0 instructions:   76000000 cycles:  140238916 heartbeat IPC: 0.33746 cumulative IPC: 0.30199 (Simulation time: 0 hr 6 min 22 sec) 
Heartbeat CPU  0 instructions:   77000001 cycles:  144107362 heartbeat IPC: 0.25850 cumulative IPC: 0.30063 (Simulation time: 0 hr 6 min 29 sec) 
Heartbeat CPU  0 instructions:   78000000 cycles:  147510743 heartbeat IPC: 0.29383 cumulative IPC: 0.30044 (Simulation time: 0 hr 6 min 35 sec) 
Heartbeat CPU  0 instructions:   79000002 cycles:  150973655 heartbeat IPC: 0.28877 cumulative IPC: 0.30013 (Simulation time: 0 hr 6 min 41 sec) 
Heartbeat CPU  0 instructions:   80000000 cycles:  154861983 heartbeat IPC: 0.25718 cumulative IPC: 0.29889 (Simulation time: 0 hr 6 min 47 sec) 
Heartbeat CPU  0 instructions:   81000001 cycles:  156867212 heartbeat IPC: 0.49870 cumulative IPC: 0.30184 (Simulation time: 0 hr 6 min 52 sec) 
Heartbeat CPU  0 instructions:   82000000 cycles:  160796637 heartbeat IPC: 0.25449 cumulative IPC: 0.30050 (Simulation time: 0 hr 6 min 59 sec) 
Heartbeat CPU  0 instructions:   83000001 cycles:  163543811 heartbeat IPC: 0.36401 cumulative IPC: 0.30173 (Simulation time: 0 hr 7 min 5 sec) 
Heartbeat CPU  0 instructions:   84000000 cycles:  167089733 heartbeat IPC: 0.28201 cumulative IPC: 0.30125 (Simulation time: 0 hr 7 min 11 sec) 
Heartbeat CPU  0 instructions:   85000000 cycles:  170120195 heartbeat IPC: 0.32998 cumulative IPC: 0.30183 (Simulation time: 0 hr 7 min 17 sec) 
Heartbeat CPU  0 instructions:   86000001 cycles:  173876934 heartbeat IPC: 0.26619 cumulative IPC: 0.30096 (Simulation time: 0 hr 7 min 24 sec) 
Heartbeat CPU  0 instructions:   87000001 cycles:  176909328 heartbeat IPC: 0.32977 cumulative IPC: 0.30152 (Simulation time: 0 hr 7 min 30 sec) 
Heartbeat CPU  0 instructions:   88000000 cycles:  180818910 heartbeat IPC: 0.25578 cumulative IPC: 0.30040 (Simulation time: 0 hr 7 min 37 sec) 
Heartbeat CPU  0 instructions:   89000003 cycles:  183644162 heartbeat IPC: 0.35395 cumulative IPC: 0.30133 (Simulation time: 0 hr 7 min 42 sec) 
Heartbeat CPU  0 instructions:   90000002 cycles:  185697017 heartbeat IPC: 0.48713 cumulative IPC: 0.30365 (Simulation time: 0 hr 7 min 48 sec) 
Heartbeat CPU  0 instructions:   91000003 cycles:  188885112 heartbeat IPC: 0.31367 cumulative IPC: 0.30384 (Simulation time: 0 hr 7 min 54 sec) 
Heartbeat CPU  0 instructions:   92000000 cycles:  192360237 heartbeat IPC: 0.28776 cumulative IPC: 0.30351 (Simulation time: 0 hr 8 min 0 sec) 
Heartbeat CPU  0 instructions:   93000001 cycles:  196021596 heartbeat IPC: 0.27312 cumulative IPC: 0.30287 (Simulation time: 0 hr 8 min 7 sec) 
Heartbeat CPU  0 instructions:   94000001 cycles:  199287192 heartbeat IPC: 0.30622 cumulative IPC: 0.30294 (Simulation time: 0 hr 8 min 13 sec) 
Heartbeat CPU  0 instructions:   95000000 cycles:  203220597 heartbeat IPC: 0.25423 cumulative IPC: 0.30188 (Simulation time: 0 hr 8 min 20 sec) 
Heartbeat CPU  0 instructions:   96000000 cycles:  205561455 heartbeat IPC: 0.42719 cumulative IPC: 0.30347 (Simulation time: 0 hr 8 min 25 sec) 
Heartbeat CPU  0 instructions:   97000000 cycles:  207923278 heartbeat IPC: 0.42340 cumulative IPC: 0.30499 (Simulation time: 0 hr 8 min 30 sec) 
Heartbeat CPU  0 instructions:   98000000 cycles:  211911104 heartbeat IPC: 0.25076 cumulative IPC: 0.30386 (Simulation time: 0 hr 8 min 37 sec) 
Heartbeat CPU  0 instructions:   99000002 cycles:  214895380 heartbeat IPC: 0.33509 cumulative IPC: 0.30434 (Simulation time: 0 hr 8 min 42 sec) 
Heartbeat CPU  0 instructions:  100000000 cycles:  218793727 heartbeat IPC: 0.25652 cumulative IPC: 0.30339 (Simulation time: 0 hr 8 min 49 sec) 
Heartbeat CPU  0 instructions:  101000000 cycles:  220750242 heartbeat IPC: 0.51111 cumulative IPC: 0.30543 (Simulation time: 0 hr 8 min 54 sec) 
Heartbeat CPU  0 instructions:  102000000 cycles:  223857381 heartbeat IPC: 0.32184 cumulative IPC: 0.30568 (Simulation time: 0 hr 9 min 0 sec) 
Heartbeat CPU  0 instructions:  103000001 cycles:  227414724 heartbeat IPC: 0.28111 cumulative IPC: 0.30526 (Simulation time: 0 hr 9 min 6 sec) 
Heartbeat CPU  0 instructions:  104000000 cycles:  229419650 heartbeat IPC: 0.49877 cumulative IPC: 0.30712 (Simulation time: 0 hr 9 min 11 sec) 
Heartbeat CPU  0 instructions:  105000001 cycles:  233184451 heartbeat IPC: 0.26562 cumulative IPC: 0.30638 (Simulation time: 0 hr 9 min 18 sec) 
Heartbeat CPU  0 instructions:  106000003 cycles:  236110062 heartbeat IPC: 0.34181 cumulative IPC: 0.30686 (Simulation time: 0 hr 9 min 23 sec) 
Heartbeat CPU  0 instructions:  107000000 cycles:  239191886 heartbeat IPC: 0.32448 cumulative IPC: 0.30711 (Simulation time: 0 hr 9 min 29 sec) 
Heartbeat CPU  0 instructions:  108000000 cycles:  242595454 heartbeat IPC: 0.29381 cumulative IPC: 0.30691 (Simulation time: 0 hr 9 min 36 sec) 
Heartbeat CPU  0 instructions:  109000000 cycles:  245211773 heartbeat IPC: 0.38222 cumulative IPC: 0.30779 (Simulation time: 0 hr 9 min 41 sec) 
Heartbeat CPU  0 instructions:  110000000 cycles:  248306581 heartbeat IPC: 0.32312 cumulative IPC: 0.30800 (Simulation time: 0 hr 9 min 47 sec) 
Heartbeat CPU  0 instructions:  111000001 cycles:  252282343 heartbeat IPC: 0.25152 cumulative IPC: 0.30703 (Simulation time: 0 hr 9 min 54 sec) 
Heartbeat CPU  0 instructions:  112000000 cycles:  254384542 heartbeat IPC: 0.47569 cumulative IPC: 0.30855 (Simulation time: 0 hr 9 min 59 sec) 
Heartbeat CPU  0 instructions:  113000001 cycles:  256242695 heartbeat IPC: 0.53817 cumulative IPC: 0.31036 (Simulation time: 0 hr 10 min 4 sec) 
Heartbeat CPU  0 instructions:  114000002 cycles:  260019962 heartbeat IPC: 0.26474 cumulative IPC: 0.30964 (Simulation time: 0 hr 10 min 11 sec) 
Heartbeat CPU  0 instructions:  115000003 cycles:  262649074 heartbeat IPC: 0.38036 cumulative IPC: 0.31041 (Simulation time: 0 hr 10 min 16 sec) 
Heartbeat CPU  0 instructions:  116000000 cycles:  265242895 heartbeat IPC: 0.38553 cumulative IPC: 0.31121 (Simulation time: 0 hr 10 min 22 sec) 
Heartbeat CPU  0 instructions:  117000002 cycles:  269360651 heartbeat IPC: 0.24285 cumulative IPC: 0.31007 (Simulation time: 0 hr 10 min 29 sec) 
Heartbeat CPU  0 instructions:  118000000 cycles:  272534214 heartbeat IPC: 0.31510 cumulative IPC: 0.31014 (Simulation time: 0 hr 10 min 35 sec) 
Heartbeat CPU  0 instructions:  119000000 cycles:  276257612 heartbeat IPC: 0.26857 cumulative IPC: 0.30953 (Simulation time: 0 hr 10 min 42 sec) 
Heartbeat CPU  0 instructions:  120000000 cycles:  278531578 heartbeat IPC: 0.43976 cumulative IPC: 0.31068 (Simulation time: 0 hr 10 min 47 sec) 
Heartbeat CPU  0 instructions:  121000000 cycles:  282575067 heartbeat IPC: 0.24731 cumulative IPC: 0.30970 (Simulation time: 0 hr 10 min 54 sec) 
Heartbeat CPU  0 instructions:  122000001 cycles:  285101581 heartbeat IPC: 0.39580 cumulative IPC: 0.31052 (Simulation time: 0 hr 11 min 0 sec) 
Heartbeat CPU  0 instructions:  123000001 cycles:  288785213 heartbeat IPC: 0.27147 cumulative IPC: 0.30999 (Simulation time: 0 hr 11 min 6 sec) 
Heartbeat CPU  0 instructions:  124000000 cycles:  292509302 heartbeat IPC: 0.26852 cumulative IPC: 0.30942 (Simulation time: 0 hr 11 min 13 sec) 
Heartbeat CPU  0 instructions:  125000002 cycles:  296220355 heartbeat IPC: 0.26947 cumulative IPC: 0.30888 (Simulation time: 0 hr 11 min 19 sec) 
Heartbeat CPU  0 instructions:  126000003 cycles:  299341275 heartbeat IPC: 0.32042 cumulative IPC: 0.30901 (Simulation time: 0 hr 11 min 26 sec) 
Heartbeat CPU  0 instructions:  127000001 cycles:  302767185 heartbeat IPC: 0.29189 cumulative IPC: 0.30880 (Simulation time: 0 hr 11 min 32 sec) 
Heartbeat CPU  0 instructions:  128000000 cycles:  306127711 heartbeat IPC: 0.29757 cumulative IPC: 0.30867 (Simulation time: 0 hr 11 min 38 sec) 
Heartbeat CPU  0 instructions:  129000000 cycles:  309835988 heartbeat IPC: 0.26967 cumulative IPC: 0.30817 (Simulation time: 0 hr 11 min 45 sec) 
Heartbeat CPU  0 instructions:  130000003 cycles:  313779211 heartbeat IPC: 0.25360 cumulative IPC: 0.30743 (Simulation time: 0 hr 11 min 51 sec) 
Heartbeat CPU  0 instructions:  131000000 cycles:  316243665 heartbeat IPC: 0.40577 cumulative IPC: 0.30825 (Simulation time: 0 hr 11 min 57 sec) 
Heartbeat CPU  0 instructions:  132000000 cycles:  320215232 heartbeat IPC: 0.25179 cumulative IPC: 0.30750 (Simulation time: 0 hr 12 min 4 sec) 
Heartbeat CPU  0 instructions:  133000000 cycles:  323060248 heartbeat IPC: 0.35149 cumulative IPC: 0.30792 (Simulation time: 0 hr 12 min 10 sec) 
Heartbeat CPU  0 instructions:  134000000 cycles:  327016831 heartbeat IPC: 0.25274 cumulative IPC: 0.30720 (Simulation time: 0 hr 12 min 16 sec) 
Heartbeat CPU  0 instructions:  135000000 cycles:  329911153 heartbeat IPC: 0.34550 cumulative IPC: 0.30756 (Simulation time: 0 hr 12 min 22 sec) 
Heartbeat CPU  0 instructions:  136000000 cycles:  333745920 heartbeat IPC: 0.26077 cumulative IPC: 0.30699 (Simulation time: 0 hr 12 min 29 sec) 
Heartbeat CPU  0 instructions:  137000000 cycles:  336824190 heartbeat IPC: 0.32486 cumulative IPC: 0.30716 (Simulation time: 0 hr 12 min 35 sec) 
Heartbeat CPU  0 instructions:  138000001 cycles:  340454635 heartbeat IPC: 0.27545 cumulative IPC: 0.30680 (Simulation time: 0 hr 12 min 41 sec) 
Heartbeat CPU  0 instructions:  139000001 cycles:  343425490 heartbeat IPC: 0.33660 cumulative IPC: 0.30708 (Simulation time: 0 hr 12 min 47 sec) 
Heartbeat CPU  0 instructions:  140000000 cycles:  347165117 heartbeat IPC: 0.26741 cumulative IPC: 0.30662 (Simulation time: 0 hr 12 min 54 sec) 
Finished CPU 0 instructions: 100000002 cycles: 326133659 cumulative IPC: 0.30662 (Simulation time: 0 hr 12 min 54 sec) 

ChampSim completed all CPUs

[ROI Statistics]
Core_0_instructions 100000002
Core_0_cycles 326133659
Core_0_IPC 0.30662

Core_0_branch_prediction_accuracy 99.25595
Core_0_branch_MPKI 1.74952
Core_0_average_ROB_occupancy_at_mispredict 117.05427

Core_0_L1D_total_access 22294051
Core_0_L1D_total_hit 19471760
Core_0_L1D_total_miss 2822291
Core_0_L1D_loads 17554900
Core_0_L1D_load_hit 14793096
Core_0_L1D_load_miss 2761804
Core_0_L1D_RFOs 4739151
Core_0_L1D_RFO_hit 4678664
Core_0_L1D_RFO_miss 60487
Core_0_L1D_prefetches 0
Core_0_L1D_prefetch_hit 0
Core_0_L1D_prefetch_miss 0
Core_0_L1D_writebacks 0
Core_0_L1D_writeback_hit 0
Core_0_L1D_writeback_miss 0
Core_0_L1D_prefetch_requested 0
Core_0_L1D_prefetch_dropped 0
Core_0_L1D_prefetch_issued 0
Core_0_L1D_prefetch_filled 0
Core_0_L1D_prefetch_useful 0
Core_0_L1D_prefetch_useless 0
Core_0_L1D_prefetch_late 0
Core_0_L1D_average_miss_latency 102.77418

Core_0_L1D_rq_access 29362147
Core_0_L1D_rq_forward 0
Core_0_L1D_rq_merged 10950052
Core_0_L1D_rq_to_cache 18412089
Core_0_L1D_rq_full 0

Core_0_L1D_wq_access 4941795
Core_0_L1D_wq_forward 6
Core_0_L1D_wq_merged 34471
Core_0_L1D_wq_to_cache 4907324
Core_0_L1D_wq_full 16403

Core_0_L1D_pq_access 0
Core_0_L1D_pq_forward 0
Core_0_L1D_pq_merged 0
Core_0_L1D_pq_to_cache 0
Core_0_L1D_pq_full 0

Core_0_L1D_acc_epochs 290215
Core_0_L1D_acc_level_0 290215
Core_0_L1D_acc_level_1 0
Core_0_L1D_acc_level_2 0
Core_0_L1D_acc_level_3 0
Core_0_L1D_acc_level_4 0
Core_0_L1D_acc_level_5 0
Core_0_L1D_acc_level_6 0
Core_0_L1D_acc_level_7 0
Core_0_L1D_acc_level_8 0
Core_0_L1D_acc_level_9 0

Core_0_L1I_total_access 32155041
Core_0_L1I_total_hit 31804203
Core_0_L1I_total_miss 350838
Core_0_L1I_loads 32155041
Core_0_L1I_load_hit 31804203
Core_0_L1I_load_miss 350838
Core_0_L1I_RFOs 0
Core_0_L1I_RFO_hit 0
Core_0_L1I_RFO_miss 0
Core_0_L1I_prefetches 0
Core_0_L1I_prefetch_hit 0
Core_0_L1I_prefetch_miss 0
Core_0_L1I_writebacks 0
Core_0_L1I_writeback_hit 0
Core_0_L1I_writeback_miss 0
Core_0_L1I_prefetch_requested 0
Core_0_L1I_prefetch_dropped 0
Core_0_L1I_prefetch_issued 0
Core_0_L1I_prefetch_filled 0
Core_0_L1I_prefetch_useful 0
Core_0_L1I_prefetch_useless 0
Core_0_L1I_prefetch_late 0
Core_0_L1I_average_miss_latency 21.89875

Core_0_L1I_rq_access 100000124
Core_0_L1I_rq_forward 0
Core_0_L1I_rq_merged 67626424
Core_0_L1I_rq_to_cache 32373700
Core_0_L1I_rq_full 0

Core_0_L1I_wq_access 0
Core_0_L1I_wq_forward 0
Core_0_L1I_wq_merged 0
Core_0_L1I_wq_to_cache 0
Core_0_L1I_wq_full 0

Core_0_L1I_pq_access 0
Core_0_L1I_pq_forward 0
Core_0_L1I_pq_merged 0
Core_0_L1I_pq_to_cache 0
Core_0_L1I_pq_full 0

Core_0_L1I_acc_epochs 290215
Core_0_L1I_acc_level_0 290215
Core_0_L1I_acc_level_1 0
Core_0_L1I_acc_level_2 0
Core_0_L1I_acc_level_3 0
Core_0_L1I_acc_level_4 0
Core_0_L1I_acc_level_5 0
Core_0_L1I_acc_level_6 0
Core_0_L1I_acc_level_7 0
Core_0_L1I_acc_level_8 0
Core_0_L1I_acc_level_9 0

Core_0_L2C_total_access 3518315
Core_0_L2C_total_hit 852816
Core_0_L2C_total_miss 2665499
Core_0_L2C_loads 3112625
Core_0_L2C_load_hit 537642
Core_0_L2C_load_miss 2574983
Core_0_L2C_RFOs 60478
Core_0_L2C_RFO_hit 30188
Core_0_L2C_RFO_miss 30290
Core_0_L2C_prefetches 219501
Core_0_L2C_prefetch_hit 159992
Core_0_L2C_prefetch_miss 59509
Core_0_L2C_writebacks 125711
Core_0_L2C_writeback_hit 124994
Core_0_L2C_writeback_miss 717
Core_0_L2C_prefetch_requested 2089531
Core_0_L2C_prefetch_dropped 0
Core_0_L2C_prefetch_issued 2089531
Core_0_L2C_prefetch_filled 86339
Core_0_L2C_prefetch_useful 74096
Core_0_L2C_prefetch_useless 12234
Core_0_L2C_prefetch_late 14562
Core_0_L2C_average_miss_latency 86.88422

Core_0_L2C_rq_access 3173129
Core_0_L2C_rq_forward 0
Core_0_L2C_rq_merged 0
Core_0_L2C_rq_to_cache 3173103
Core_0_L2C_rq_full 0

Core_0_L2C_wq_access 125711
Core_0_L2C_wq_forward 26
Core_0_L2C_wq_merged 0
Core_0_L2C_wq_to_cache 125711
Core_0_L2C_wq_full 0

Core_0_L2C_pq_access 2089531
Core_0_L2C_pq_forward 0
Core_0_L2C_pq_merged 85939
Core_0_L2C_pq_to_cache 2003592
Core_0_L2C_pq_full 0

Core_0_L2C_acc_epochs 290215
Core_0_L2C_acc_level_0 190640
Core_0_L2C_acc_level_1 19139
Core_0_L2C_acc_level_2 16917
Core_0_L2C_acc_level_3 10115
Core_0_L2C_acc_level_4 5113
Core_0_L2C_acc_level_5 19015
Core_0_L2C_acc_level_6 7797
Core_0_L2C_acc_level_7 7952
Core_0_L2C_acc_level_8 6186
Core_0_L2C_acc_level_9 7341

Core_0_LLC_total_access 3689084
Core_0_LLC_total_hit 2055858
Core_0_LLC_total_miss 1633226
Core_0_LLC_loads 2561552
Core_0_LLC_load_hit 1313850
Core_0_LLC_load_miss 1247702
Core_0_LLC_RFOs 30290
Core_0_LLC_RFO_hit 13658
Core_0_LLC_RFO_miss 16632
Core_0_LLC_prefetches 1045307
Core_0_LLC_prefetch_hit 682346
Core_0_LLC_prefetch_miss 362961
Core_0_LLC_writebacks 51935
Core_0_LLC_writeback_hit 46004
Core_0_LLC_writeback_miss 5931
Core_0_LLC_prefetch_requested 0
Core_0_LLC_prefetch_dropped 0
Core_0_LLC_prefetch_issued 0
Core_0_LLC_prefetch_filled 540650
Core_0_LLC_prefetch_useful 71845
Core_0_LLC_prefetch_useless 464759
Core_0_LLC_prefetch_late 43924
Core_0_LLC_average_miss_latency 116.78683

Core_0_LLC_rq_access 2591842
Core_0_LLC_rq_forward 0
Core_0_LLC_rq_merged 0
Core_0_LLC_rq_to_cache 2591842
Core_0_LLC_rq_full 0

Core_0_LLC_wq_access 51935
Core_0_LLC_wq_forward 0
Core_0_LLC_wq_merged 0
Core_0_LLC_wq_to_cache 51935
Core_0_LLC_wq_full 0

Core_0_LLC_pq_access 1547495
Core_0_LLC_pq_forward 0
Core_0_LLC_pq_merged 5081
Core_0_LLC_pq_to_cache 1542414
Core_0_LLC_pq_full 0

Core_0_LLC_acc_epochs 339029
Core_0_LLC_acc_level_0 280112
Core_0_LLC_acc_level_1 21958
Core_0_LLC_acc_level_2 15160
Core_0_LLC_acc_level_3 5109
Core_0_LLC_acc_level_4 2152
Core_0_LLC_acc_level_5 8666
Core_0_LLC_acc_level_6 2174
Core_0_LLC_acc_level_7 1380
Core_0_LLC_acc_level_8 703
Core_0_LLC_acc_level_9 1615

Core_0_major_page_fault 0
Core_0_minor_page_fault 11159

spp.pref.total 2089531
spp.pref.at_L2 114268
spp.pref.at_LLC 1975263

spp.depth.max 7
spp.depth.min 0
spp.depth.avg 0

spp.breadth.max 2
spp.breadth.min 0
spp.breadth.avg 0

delta_1 1773617
delta_-4 188033
delta_-1 67649
delta_3 42473
delta_2 28609
delta_-5 21974
delta_8 9027
delta_-6 4207
delta_4 2174
delta_11 1383
delta_22 797
delta_21 686
delta_5 447
delta_24 415
delta_-2 387
delta_-9 333
delta_-21 249
delta_9 186
delta_10 175
delta_7 171
delta_-10 168
delta_29 130
delta_-3 119
delta_-13 94
delta_-11 84
delta_16 52
delta_14 52
delta_-30 47
delta_12 44
delta_-22 40
delta_18 39
delta_-40 36
delta_-53 32
delta_-41 25
delta_-7 25
delta_52 24
delta_-25 22
delta_-14 19
delta_-16 17
delta_-8 17
delta_37 16
delta_-27 15
delta_6 15
delta_25 12
delta_-19 11
delta_-23 11
delta_15 10
delta_20 10
delta_-29 9
delta_40 7
delta_55 5
delta_-15 5
delta_-24 4
delta_58 4
delta_17 4
delta_13 4
delta_-39 3
delta_-12 2
delta_46 2
delta_48 2
delta_-55 2
delta_38 2
delta_31 1
delta_-20 1
delta_-58 1

depth_1_delta_1 1491500
depth_1_delta_-4 122704
depth_1_delta_-1 55473
depth_1_delta_3 42417
depth_1_delta_2 27843
depth_1_delta_-5 15224
depth_1_delta_8 8697
depth_1_delta_-6 4052
depth_1_delta_4 2152
depth_1_delta_11 1383
depth_1_delta_22 777
depth_1_delta_21 686
depth_1_delta_5 434
depth_1_delta_24 415
depth_1_delta_-2 387
depth_1_delta_-9 333
depth_1_delta_-21 249
depth_1_delta_9 186
depth_1_delta_10 175
depth_1_delta_7 170
depth_1_delta_-10 168
depth_1_delta_29 130
depth_1_delta_-3 119
depth_1_delta_-13 94
depth_1_delta_-11 84
depth_1_delta_16 52
depth_1_delta_14 52
depth_1_delta_-30 47
depth_1_delta_12 44
depth_1_delta_-22 40
depth_1_delta_18 39
depth_1_delta_-40 33
depth_1_delta_-53 28
depth_1_delta_-41 25
depth_1_delta_-7 25
depth_1_delta_52 24
depth_1_delta_-25 22
depth_1_delta_-14 19
depth_1_delta_-16 17
depth_1_delta_-8 17
depth_1_delta_37 16
depth_1_delta_-27 15
depth_1_delta_6 15
depth_1_delta_25 12
depth_1_delta_-19 11
depth_1_delta_-23 11
depth_1_delta_15 10
depth_1_delta_-29 9
depth_1_delta_20 9
depth_1_delta_40 7
depth_1_delta_55 5
depth_1_delta_-15 5
depth_1_delta_-24 4
depth_1_delta_58 4
depth_1_delta_17 4
depth_1_delta_13 4
depth_1_delta_-39 3
depth_1_delta_-12 2
depth_1_delta_46 2
depth_1_delta_48 2
depth_1_delta_-55 2
depth_1_delta_38 2
depth_1_delta_31 1
depth_1_delta_-20 1
depth_1_delta_-58 1
depth_2_delta_1 239733
depth_2_delta_-4 65071
depth_2_delta_-1 9106
depth_2_delta_-5 5459
depth_2_delta_2 733
depth_2_delta_8 321
depth_2_delta_-6 155
depth_2_delta_3 56
depth_2_delta_4 22
depth_2_delta_22 20
depth_2_delta_5 13
depth_2_delta_-53 4
depth_2_delta_-40 3
depth_2_delta_7 1
depth_2_delta_20 1
depth_3_delta_1 27446
depth_3_delta_-1 2581
depth_3_delta_-5 1291
depth_3_delta_-4 258
depth_3_delta_2 33
depth_3_delta_8 9
depth_4_delta_1 9856
depth_4_delta_-1 466
depth_5_delta_1 3564
depth_5_delta_-1 21
depth_6_delta_1 1242
depth_6_delta_-1 2
depth_7_delta_1 276

Channel_0_RQ_row_buffer_hit 1078393
Channel_0_RQ_row_buffer_miss 548902
Channel_0_WQ_row_buffer_hit 2381
Channel_0_WQ_row_buffer_miss 18725
Channel_0_WQ_full 0
Channel_0_dbus_congested 445299

avg_congested_cycle 8

DRAM_bw_pochs 1356114
DRAM_bw_level_0 1226218
DRAM_bw_level_1 129123
DRAM_bw_level_2 384
DRAM_bw_level_3 389
