*************************************************
   ChampSim Multicore Out-of-Order Simulator
   Last compiled: Feb  6 2025 20:33:19
*************************************************
parsing config file: /home/wzz/Pythia/config/mlop.ini

trace_0 /home/wzz/Pythia/traces/623.xalancbmk_s-10B.champsimtrace.xz
adding L2C_PREFETCHER: MLOP
Initialize SHIP state
warmup_instructions 40000000
simulation_instructions 100000000
champsim_seed 163
measure_ipc 0
measure_ipc_epoch 1000
measure_dram_bw 1
measure_dram_bw_epoch 256
measure_cache_acc 1
measure_cache_acc_epoch 1024
l1d_perfect 0
l2c_perfect 0
llc_perfect 0
l1d_semi_perfect 0
l2c_semi_perfect 0
llc_semi_perfect 0
semi_perfect_cache_page_buffer_size 64

num_cpus 1
cpu_freq 4000
dram_io_freq 2400
page_size 4096
block_size 64
max_read_per_cycle 8
max_fill_per_cycle 1
dram_channels 1
log2_dram_channels 0
dram_ranks 1
dram_banks 8
dram_rows 65536
dram_columns 128
dram_row_size 8
dram_size 4096
dram_pages 1048576

fetch_width 6
decode_width 6
exec_width 4
lq_width 2
sq_width 2
retire_width 4
scheduler_size 128
branch_mispredict_penalty 20
rob_size 256
lq_size 72
sq_size 56
num_instr_destinations_sparc 4
num_instr_destinations 2
num_instr_sources 4

itlb_set 16
itlb_way 8
itlb_rq_size 16
itlb_wq_size 16
itlb_pq_size 0
itlb_mshr_size 8
itlb_latency 1

dtlb_set 16
dtlb_way 4
dtlb_rq_size 16
dtlb_wq_size 16
dtlb_pq_size 0
dtlb_mshr_size 8
dtlb_latency 1

stlb_set 128
stlb_way 12
stlb_rq_size 32
stlb_wq_size 32
stlb_pq_size 0
stlb_mshr_size 16
stlb_latency 8

l1i_size 32
l1i_set 64
l1i_way 8
l1i_rq_size 64
l1i_wq_size 64
l1i_pq_size 8
l1i_mshr_size 8
l1i_latency 1

l1d_size 32
l1d_set 64
l1d_way 8
l1d_rq_size 64
l1d_wq_size 64
l1d_pq_size 8
l1d_mshr_size 16
l1d_latency 4

l2c_size 256
l2c_set 512
l2c_way 8
l2c_rq_size 32
l2c_wq_size 32
l2c_pq_size 32
l2c_mshr_size 32
l2c_latency 10

llc_size 2048
llc_set 2048
llc_way 16
llc_rq_size 32
llc_wq_size 32
llc_pq_size 32
llc_mshr_size 64
llc_latency 20

dram_channel_width 8
dram_wq_size 64
dram_rq_size 64
tRP 15
tRCD 15
tCAS 12.5
dram_dbus_turn_around_time 30
dram_write_high_wm 56
dram_write_low_wm 48
min_dram_writes_per_switch 16
dram_mtps 2400
dram_dbus_return_time 13

mlop_pref_degree 16
mlop_num_updates 500
mlop_l1d_thresh 2
mlop_l2c_thresh 0.75
mlop_llc_thresh 0.3
mlop_debug_level 0
mlop_blocks_in_cache 4096
mlop_blocks_in_zone 64
mlop_amt_size 2048
mlop_PF_DEGREE 16
mlop_NUM_UPDATES 500
mlop_L1D_THRESH 1000
mlop_L2C_THRESH 375
mlop_LLC_THRESH 150
mlop_ORIGIN 63
mlop_MAX_OFFSET 63
mlop_MIN_OFFSET -63
mlop_ORIGIN 63
mlop_NUM_OFFSETS 127


Heartbeat CPU  0 instructions:    1000001 cycles:     607587 heartbeat IPC: 1.64586 cumulative IPC: 1.64586 (Simulation time: 0 hr 0 min 4 sec) 
Heartbeat CPU  0 instructions:    2000002 cycles:    1113048 heartbeat IPC: 1.97839 cumulative IPC: 1.79687 (Simulation time: 0 hr 0 min 9 sec) 
Heartbeat CPU  0 instructions:    3000002 cycles:    1681559 heartbeat IPC: 1.75898 cumulative IPC: 1.78406 (Simulation time: 0 hr 0 min 12 sec) 
Heartbeat CPU  0 instructions:    4000000 cycles:    2245853 heartbeat IPC: 1.77212 cumulative IPC: 1.78106 (Simulation time: 0 hr 0 min 16 sec) 
Heartbeat CPU  0 instructions:    5000001 cycles:    2703096 heartbeat IPC: 2.18702 cumulative IPC: 1.84973 (Simulation time: 0 hr 0 min 21 sec) 
Heartbeat CPU  0 instructions:    6000000 cycles:    3248774 heartbeat IPC: 1.83258 cumulative IPC: 1.84685 (Simulation time: 0 hr 0 min 24 sec) 
Heartbeat CPU  0 instructions:    7000000 cycles:    3756061 heartbeat IPC: 1.97127 cumulative IPC: 1.86365 (Simulation time: 0 hr 0 min 28 sec) 
Heartbeat CPU  0 instructions:    8000000 cycles:    4270401 heartbeat IPC: 1.94424 cumulative IPC: 1.87336 (Simulation time: 0 hr 0 min 32 sec) 
Heartbeat CPU  0 instructions:    9000001 cycles:    4807873 heartbeat IPC: 1.86056 cumulative IPC: 1.87193 (Simulation time: 0 hr 0 min 36 sec) 
Heartbeat CPU  0 instructions:   10000001 cycles:    5329629 heartbeat IPC: 1.91660 cumulative IPC: 1.87630 (Simulation time: 0 hr 0 min 41 sec) 
Heartbeat CPU  0 instructions:   11000000 cycles:    5834763 heartbeat IPC: 1.97967 cumulative IPC: 1.88525 (Simulation time: 0 hr 0 min 44 sec) 
Heartbeat CPU  0 instructions:   12000000 cycles:    6348560 heartbeat IPC: 1.94629 cumulative IPC: 1.89019 (Simulation time: 0 hr 0 min 49 sec) 
Heartbeat CPU  0 instructions:   13000000 cycles:    6849746 heartbeat IPC: 1.99527 cumulative IPC: 1.89788 (Simulation time: 0 hr 0 min 53 sec) 
Heartbeat CPU  0 instructions:   14000002 cycles:    7393669 heartbeat IPC: 1.83850 cumulative IPC: 1.89351 (Simulation time: 0 hr 0 min 57 sec) 
Heartbeat CPU  0 instructions:   15000002 cycles:    7851488 heartbeat IPC: 2.18427 cumulative IPC: 1.91047 (Simulation time: 0 hr 1 min 1 sec) 
Heartbeat CPU  0 instructions:   16000000 cycles:    8406038 heartbeat IPC: 1.80326 cumulative IPC: 1.90339 (Simulation time: 0 hr 1 min 5 sec) 
Heartbeat CPU  0 instructions:   17000000 cycles:    8942814 heartbeat IPC: 1.86297 cumulative IPC: 1.90097 (Simulation time: 0 hr 1 min 9 sec) 
Heartbeat CPU  0 instructions:   18000000 cycles:    9435476 heartbeat IPC: 2.02979 cumulative IPC: 1.90769 (Simulation time: 0 hr 1 min 13 sec) 
Heartbeat CPU  0 instructions:   19000003 cycles:    9976251 heartbeat IPC: 1.84920 cumulative IPC: 1.90452 (Simulation time: 0 hr 1 min 17 sec) 
Heartbeat CPU  0 instructions:   20000000 cycles:   10496845 heartbeat IPC: 1.92088 cumulative IPC: 1.90533 (Simulation time: 0 hr 1 min 21 sec) 
Heartbeat CPU  0 instructions:   21000000 cycles:   11004706 heartbeat IPC: 1.96904 cumulative IPC: 1.90827 (Simulation time: 0 hr 1 min 26 sec) 
Heartbeat CPU  0 instructions:   22000000 cycles:   11575566 heartbeat IPC: 1.75174 cumulative IPC: 1.90056 (Simulation time: 0 hr 1 min 30 sec) 
Heartbeat CPU  0 instructions:   23000001 cycles:   12033281 heartbeat IPC: 2.18477 cumulative IPC: 1.91137 (Simulation time: 0 hr 1 min 34 sec) 
Heartbeat CPU  0 instructions:   24000000 cycles:   12642599 heartbeat IPC: 1.64118 cumulative IPC: 1.89834 (Simulation time: 0 hr 1 min 38 sec) 
Heartbeat CPU  0 instructions:   25000000 cycles:   13098697 heartbeat IPC: 2.19251 cumulative IPC: 1.90859 (Simulation time: 0 hr 1 min 42 sec) 
Heartbeat CPU  0 instructions:   26000003 cycles:   13701139 heartbeat IPC: 1.65992 cumulative IPC: 1.89765 (Simulation time: 0 hr 1 min 46 sec) 
Heartbeat CPU  0 instructions:   27000000 cycles:   14173954 heartbeat IPC: 2.11499 cumulative IPC: 1.90490 (Simulation time: 0 hr 1 min 50 sec) 
Heartbeat CPU  0 instructions:   28000000 cycles:   14728927 heartbeat IPC: 1.80189 cumulative IPC: 1.90102 (Simulation time: 0 hr 1 min 54 sec) 
Heartbeat CPU  0 instructions:   29000003 cycles:   15213121 heartbeat IPC: 2.06529 cumulative IPC: 1.90625 (Simulation time: 0 hr 1 min 58 sec) 
Heartbeat CPU  0 instructions:   30000000 cycles:   15751817 heartbeat IPC: 1.85633 cumulative IPC: 1.90454 (Simulation time: 0 hr 2 min 2 sec) 
Heartbeat CPU  0 instructions:   31000000 cycles:   16316980 heartbeat IPC: 1.76940 cumulative IPC: 1.89986 (Simulation time: 0 hr 2 min 6 sec) 
Heartbeat CPU  0 instructions:   32000000 cycles:   16826247 heartbeat IPC: 1.96361 cumulative IPC: 1.90179 (Simulation time: 0 hr 2 min 11 sec) 
Heartbeat CPU  0 instructions:   33000001 cycles:   17358713 heartbeat IPC: 1.87806 cumulative IPC: 1.90106 (Simulation time: 0 hr 2 min 14 sec) 
Heartbeat CPU  0 instructions:   34000000 cycles:   17815036 heartbeat IPC: 2.19143 cumulative IPC: 1.90850 (Simulation time: 0 hr 2 min 19 sec) 
Heartbeat CPU  0 instructions:   35000000 cycles:   18378450 heartbeat IPC: 1.77489 cumulative IPC: 1.90440 (Simulation time: 0 hr 2 min 22 sec) 
Heartbeat CPU  0 instructions:   36000000 cycles:   18857161 heartbeat IPC: 2.08894 cumulative IPC: 1.90909 (Simulation time: 0 hr 2 min 26 sec) 
Heartbeat CPU  0 instructions:   37000000 cycles:   19441104 heartbeat IPC: 1.71250 cumulative IPC: 1.90318 (Simulation time: 0 hr 2 min 31 sec) 
Heartbeat CPU  0 instructions:   38000000 cycles:   19942490 heartbeat IPC: 1.99447 cumulative IPC: 1.90548 (Simulation time: 0 hr 2 min 35 sec) 
Heartbeat CPU  0 instructions:   39000002 cycles:   20500477 heartbeat IPC: 1.79216 cumulative IPC: 1.90239 (Simulation time: 0 hr 2 min 38 sec) 
Heartbeat CPU  0 instructions:   40000000 cycles:   21053100 heartbeat IPC: 1.80955 cumulative IPC: 1.89996 (Simulation time: 0 hr 2 min 42 sec) 

Warmup complete CPU  0 instructions:   40000002 cycles:   21053101 (Simulation time: 0 hr 2 min 42 sec) 

Heartbeat CPU  0 instructions:   41000002 cycles:   25023020 heartbeat IPC: 0.25189 cumulative IPC: 0.25189 (Simulation time: 0 hr 2 min 49 sec) 
Heartbeat CPU  0 instructions:   42000000 cycles:   27879783 heartbeat IPC: 0.35005 cumulative IPC: 0.29297 (Simulation time: 0 hr 2 min 55 sec) 
Heartbeat CPU  0 instructions:   43000002 cycles:   31847059 heartbeat IPC: 0.25206 cumulative IPC: 0.27793 (Simulation time: 0 hr 3 min 2 sec) 
Heartbeat CPU  0 instructions:   44000000 cycles:   35134975 heartbeat IPC: 0.30414 cumulative IPC: 0.28405 (Simulation time: 0 hr 3 min 8 sec) 
Heartbeat CPU  0 instructions:   45000002 cycles:   39185664 heartbeat IPC: 0.24687 cumulative IPC: 0.27575 (Simulation time: 0 hr 3 min 15 sec) 
Heartbeat CPU  0 instructions:   46000001 cycles:   42541068 heartbeat IPC: 0.29803 cumulative IPC: 0.27923 (Simulation time: 0 hr 3 min 21 sec) 
Heartbeat CPU  0 instructions:   47000002 cycles:   45996662 heartbeat IPC: 0.28939 cumulative IPC: 0.28063 (Simulation time: 0 hr 3 min 28 sec) 
Heartbeat CPU  0 instructions:   48000000 cycles:   49796047 heartbeat IPC: 0.26320 cumulative IPC: 0.27833 (Simulation time: 0 hr 3 min 34 sec) 
Heartbeat CPU  0 instructions:   49000002 cycles:   53270163 heartbeat IPC: 0.28784 cumulative IPC: 0.27936 (Simulation time: 0 hr 3 min 41 sec) 
Heartbeat CPU  0 instructions:   50000001 cycles:   57323228 heartbeat IPC: 0.24673 cumulative IPC: 0.27571 (Simulation time: 0 hr 3 min 48 sec) 
Heartbeat CPU  0 instructions:   51000000 cycles:   59386614 heartbeat IPC: 0.48464 cumulative IPC: 0.28696 (Simulation time: 0 hr 3 min 53 sec) 
Heartbeat CPU  0 instructions:   52000000 cycles:   63543994 heartbeat IPC: 0.24054 cumulative IPC: 0.28241 (Simulation time: 0 hr 4 min 0 sec) 
Heartbeat CPU  0 instructions:   53000001 cycles:   66769147 heartbeat IPC: 0.31006 cumulative IPC: 0.28436 (Simulation time: 0 hr 4 min 6 sec) 
Heartbeat CPU  0 instructions:   54000001 cycles:   70672538 heartbeat IPC: 0.25619 cumulative IPC: 0.28215 (Simulation time: 0 hr 4 min 13 sec) 
Heartbeat CPU  0 instructions:   55000000 cycles:   74501331 heartbeat IPC: 0.26118 cumulative IPC: 0.28065 (Simulation time: 0 hr 4 min 20 sec) 
Heartbeat CPU  0 instructions:   56000000 cycles:   77537580 heartbeat IPC: 0.32935 cumulative IPC: 0.28326 (Simulation time: 0 hr 4 min 26 sec) 
Heartbeat CPU  0 instructions:   57000002 cycles:   81497104 heartbeat IPC: 0.25256 cumulative IPC: 0.28125 (Simulation time: 0 hr 4 min 33 sec) 
Heartbeat CPU  0 instructions:   58000000 cycles:   84534800 heartbeat IPC: 0.32920 cumulative IPC: 0.28355 (Simulation time: 0 hr 4 min 39 sec) 
Heartbeat CPU  0 instructions:   59000000 cycles:   86950531 heartbeat IPC: 0.41395 cumulative IPC: 0.28833 (Simulation time: 0 hr 4 min 44 sec) 
Heartbeat CPU  0 instructions:   60000000 cycles:   91143119 heartbeat IPC: 0.23852 cumulative IPC: 0.28535 (Simulation time: 0 hr 4 min 51 sec) 
Heartbeat CPU  0 instructions:   61000002 cycles:   94332251 heartbeat IPC: 0.31357 cumulative IPC: 0.28658 (Simulation time: 0 hr 4 min 58 sec) 
Heartbeat CPU  0 instructions:   62000002 cycles:   98282757 heartbeat IPC: 0.25313 cumulative IPC: 0.28486 (Simulation time: 0 hr 5 min 4 sec) 
Heartbeat CPU  0 instructions:   63000003 cycles:  101023339 heartbeat IPC: 0.36489 cumulative IPC: 0.28761 (Simulation time: 0 hr 5 min 10 sec) 
Heartbeat CPU  0 instructions:   64000000 cycles:  105068495 heartbeat IPC: 0.24721 cumulative IPC: 0.28566 (Simulation time: 0 hr 5 min 17 sec) 
Heartbeat CPU  0 instructions:   65000000 cycles:  108036617 heartbeat IPC: 0.33691 cumulative IPC: 0.28741 (Simulation time: 0 hr 5 min 23 sec) 
Heartbeat CPU  0 instructions:   66000001 cycles:  112056526 heartbeat IPC: 0.24876 cumulative IPC: 0.28570 (Simulation time: 0 hr 5 min 30 sec) 
Heartbeat CPU  0 instructions:   67000001 cycles:  113886300 heartbeat IPC: 0.54652 cumulative IPC: 0.29084 (Simulation time: 0 hr 5 min 35 sec) 
Heartbeat CPU  0 instructions:   68000000 cycles:  117522573 heartbeat IPC: 0.27501 cumulative IPC: 0.29025 (Simulation time: 0 hr 5 min 41 sec) 
Heartbeat CPU  0 instructions:   69000000 cycles:  120701832 heartbeat IPC: 0.31454 cumulative IPC: 0.29102 (Simulation time: 0 hr 5 min 48 sec) 
Heartbeat CPU  0 instructions:   70000000 cycles:  124808038 heartbeat IPC: 0.24353 cumulative IPC: 0.28914 (Simulation time: 0 hr 5 min 55 sec) 
Heartbeat CPU  0 instructions:   71000001 cycles:  127576962 heartbeat IPC: 0.36115 cumulative IPC: 0.29101 (Simulation time: 0 hr 6 min 1 sec) 
Heartbeat CPU  0 instructions:   72000000 cycles:  130442326 heartbeat IPC: 0.34900 cumulative IPC: 0.29253 (Simulation time: 0 hr 6 min 6 sec) 
Heartbeat CPU  0 instructions:   73000002 cycles:  134336059 heartbeat IPC: 0.25682 cumulative IPC: 0.29131 (Simulation time: 0 hr 6 min 13 sec) 
Heartbeat CPU  0 instructions:   74000002 cycles:  136696511 heartbeat IPC: 0.42365 cumulative IPC: 0.29401 (Simulation time: 0 hr 6 min 19 sec) 
Heartbeat CPU  0 instructions:   75000001 cycles:  140876728 heartbeat IPC: 0.23922 cumulative IPC: 0.29210 (Simulation time: 0 hr 6 min 26 sec) 
Heartbeat CPU  0 instructions:   76000000 cycles:  143848136 heartbeat IPC: 0.33654 cumulative IPC: 0.29317 (Simulation time: 0 hr 6 min 32 sec) 
Heartbeat CPU  0 instructions:   77000001 cycles:  147965498 heartbeat IPC: 0.24287 cumulative IPC: 0.29154 (Simulation time: 0 hr 6 min 39 sec) 
Heartbeat CPU  0 instructions:   78000000 cycles:  151477217 heartbeat IPC: 0.28476 cumulative IPC: 0.29136 (Simulation time: 0 hr 6 min 46 sec) 
Heartbeat CPU  0 instructions:   79000002 cycles:  155095256 heartbeat IPC: 0.27639 cumulative IPC: 0.29095 (Simulation time: 0 hr 6 min 52 sec) 
Heartbeat CPU  0 instructions:   80000000 cycles:  159255119 heartbeat IPC: 0.24039 cumulative IPC: 0.28943 (Simulation time: 0 hr 6 min 59 sec) 
Heartbeat CPU  0 instructions:   81000001 cycles:  161254265 heartbeat IPC: 0.50021 cumulative IPC: 0.29244 (Simulation time: 0 hr 7 min 4 sec) 
Heartbeat CPU  0 instructions:   82000000 cycles:  165386798 heartbeat IPC: 0.24198 cumulative IPC: 0.29099 (Simulation time: 0 hr 7 min 11 sec) 
Heartbeat CPU  0 instructions:   83000001 cycles:  168078332 heartbeat IPC: 0.37154 cumulative IPC: 0.29247 (Simulation time: 0 hr 7 min 16 sec) 
Heartbeat CPU  0 instructions:   84000000 cycles:  171787788 heartbeat IPC: 0.26958 cumulative IPC: 0.29190 (Simulation time: 0 hr 7 min 23 sec) 
Heartbeat CPU  0 instructions:   85000000 cycles:  174942253 heartbeat IPC: 0.31701 cumulative IPC: 0.29242 (Simulation time: 0 hr 7 min 29 sec) 
Heartbeat CPU  0 instructions:   86000001 cycles:  178883572 heartbeat IPC: 0.25372 cumulative IPC: 0.29145 (Simulation time: 0 hr 7 min 36 sec) 
Heartbeat CPU  0 instructions:   87000001 cycles:  181899246 heartbeat IPC: 0.33160 cumulative IPC: 0.29220 (Simulation time: 0 hr 7 min 42 sec) 
Heartbeat CPU  0 instructions:   88000000 cycles:  186064923 heartbeat IPC: 0.24006 cumulative IPC: 0.29089 (Simulation time: 0 hr 7 min 49 sec) 
Heartbeat CPU  0 instructions:   89000003 cycles:  188820143 heartbeat IPC: 0.36295 cumulative IPC: 0.29207 (Simulation time: 0 hr 7 min 55 sec) 
Heartbeat CPU  0 instructions:   90000002 cycles:  190798817 heartbeat IPC: 0.50539 cumulative IPC: 0.29456 (Simulation time: 0 hr 8 min 0 sec) 
Heartbeat CPU  0 instructions:   91000003 cycles:  194059731 heartbeat IPC: 0.30666 cumulative IPC: 0.29479 (Simulation time: 0 hr 8 min 6 sec) 
Heartbeat CPU  0 instructions:   92000000 cycles:  197649586 heartbeat IPC: 0.27856 cumulative IPC: 0.29446 (Simulation time: 0 hr 8 min 13 sec) 
Heartbeat CPU  0 instructions:   93000001 cycles:  201371403 heartbeat IPC: 0.26869 cumulative IPC: 0.29392 (Simulation time: 0 hr 8 min 19 sec) 
Heartbeat CPU  0 instructions:   94000001 cycles:  204766185 heartbeat IPC: 0.29457 cumulative IPC: 0.29394 (Simulation time: 0 hr 8 min 26 sec) 
Heartbeat CPU  0 instructions:   95000000 cycles:  208942851 heartbeat IPC: 0.23943 cumulative IPC: 0.29272 (Simulation time: 0 hr 8 min 33 sec) 
Heartbeat CPU  0 instructions:   96000000 cycles:  211215994 heartbeat IPC: 0.43992 cumulative IPC: 0.29448 (Simulation time: 0 hr 8 min 38 sec) 
Heartbeat CPU  0 instructions:   97000000 cycles:  213545088 heartbeat IPC: 0.42935 cumulative IPC: 0.29612 (Simulation time: 0 hr 8 min 44 sec) 
Heartbeat CPU  0 instructions:   98000000 cycles:  217744292 heartbeat IPC: 0.23814 cumulative IPC: 0.29488 (Simulation time: 0 hr 8 min 51 sec) 
Heartbeat CPU  0 instructions:   99000002 cycles:  220759170 heartbeat IPC: 0.33169 cumulative IPC: 0.29543 (Simulation time: 0 hr 8 min 57 sec) 
Heartbeat CPU  0 instructions:  100000000 cycles:  224906535 heartbeat IPC: 0.24112 cumulative IPC: 0.29433 (Simulation time: 0 hr 9 min 4 sec) 
Heartbeat CPU  0 instructions:  101000000 cycles:  226832116 heartbeat IPC: 0.51932 cumulative IPC: 0.29643 (Simulation time: 0 hr 9 min 9 sec) 
Heartbeat CPU  0 instructions:  102000000 cycles:  230006685 heartbeat IPC: 0.31500 cumulative IPC: 0.29672 (Simulation time: 0 hr 9 min 15 sec) 
Heartbeat CPU  0 instructions:  103000001 cycles:  233747249 heartbeat IPC: 0.26734 cumulative IPC: 0.29620 (Simulation time: 0 hr 9 min 21 sec) 
Heartbeat CPU  0 instructions:  104000000 cycles:  235745009 heartbeat IPC: 0.50056 cumulative IPC: 0.29810 (Simulation time: 0 hr 9 min 26 sec) 
Heartbeat CPU  0 instructions:  105000000 cycles:  239676465 heartbeat IPC: 0.25436 cumulative IPC: 0.29731 (Simulation time: 0 hr 9 min 33 sec) 
Heartbeat CPU  0 instructions:  106000003 cycles:  242660229 heartbeat IPC: 0.33515 cumulative IPC: 0.29782 (Simulation time: 0 hr 9 min 39 sec) 
Heartbeat CPU  0 instructions:  107000000 cycles:  245829498 heartbeat IPC: 0.31553 cumulative IPC: 0.29807 (Simulation time: 0 hr 9 min 45 sec) 
Heartbeat CPU  0 instructions:  108000000 cycles:  249399711 heartbeat IPC: 0.28010 cumulative IPC: 0.29779 (Simulation time: 0 hr 9 min 52 sec) 
Heartbeat CPU  0 instructions:  109000000 cycles:  251695615 heartbeat IPC: 0.43556 cumulative IPC: 0.29916 (Simulation time: 0 hr 9 min 57 sec) 
Heartbeat CPU  0 instructions:  110000000 cycles:  254629692 heartbeat IPC: 0.34082 cumulative IPC: 0.29969 (Simulation time: 0 hr 10 min 3 sec) 
Heartbeat CPU  0 instructions:  111000001 cycles:  258708858 heartbeat IPC: 0.24515 cumulative IPC: 0.29875 (Simulation time: 0 hr 10 min 10 sec) 
Heartbeat CPU  0 instructions:  112000000 cycles:  260757566 heartbeat IPC: 0.48811 cumulative IPC: 0.30037 (Simulation time: 0 hr 10 min 15 sec) 
Heartbeat CPU  0 instructions:  113000001 cycles:  262611327 heartbeat IPC: 0.53944 cumulative IPC: 0.30220 (Simulation time: 0 hr 10 min 20 sec) 
Heartbeat CPU  0 instructions:  114000002 cycles:  266454597 heartbeat IPC: 0.26020 cumulative IPC: 0.30155 (Simulation time: 0 hr 10 min 27 sec) 
Heartbeat CPU  0 instructions:  115000003 cycles:  269131530 heartbeat IPC: 0.37356 cumulative IPC: 0.30232 (Simulation time: 0 hr 10 min 32 sec) 
Heartbeat CPU  0 instructions:  116000000 cycles:  271568351 heartbeat IPC: 0.41037 cumulative IPC: 0.30337 (Simulation time: 0 hr 10 min 38 sec) 
Heartbeat CPU  0 instructions:  117000002 cycles:  275843168 heartbeat IPC: 0.23393 cumulative IPC: 0.30221 (Simulation time: 0 hr 10 min 45 sec) 
Heartbeat CPU  0 instructions:  118000000 cycles:  279039072 heartbeat IPC: 0.31290 cumulative IPC: 0.30234 (Simulation time: 0 hr 10 min 51 sec) 
Heartbeat CPU  0 instructions:  119000000 cycles:  282891014 heartbeat IPC: 0.25961 cumulative IPC: 0.30171 (Simulation time: 0 hr 10 min 58 sec) 
Heartbeat CPU  0 instructions:  120000000 cycles:  285166592 heartbeat IPC: 0.43945 cumulative IPC: 0.30290 (Simulation time: 0 hr 11 min 4 sec) 
Heartbeat CPU  0 instructions:  121000000 cycles:  289362808 heartbeat IPC: 0.23831 cumulative IPC: 0.30189 (Simulation time: 0 hr 11 min 11 sec) 
Heartbeat CPU  0 instructions:  122000001 cycles:  291936853 heartbeat IPC: 0.38849 cumulative IPC: 0.30271 (Simulation time: 0 hr 11 min 16 sec) 
Heartbeat CPU  0 instructions:  123000001 cycles:  295708835 heartbeat IPC: 0.26511 cumulative IPC: 0.30220 (Simulation time: 0 hr 11 min 23 sec) 
Heartbeat CPU  0 instructions:  124000000 cycles:  299564158 heartbeat IPC: 0.25938 cumulative IPC: 0.30160 (Simulation time: 0 hr 11 min 30 sec) 
Heartbeat CPU  0 instructions:  125000002 cycles:  303493245 heartbeat IPC: 0.25451 cumulative IPC: 0.30095 (Simulation time: 0 hr 11 min 37 sec) 
Heartbeat CPU  0 instructions:  126000003 cycles:  306672440 heartbeat IPC: 0.31455 cumulative IPC: 0.30110 (Simulation time: 0 hr 11 min 43 sec) 
Heartbeat CPU  0 instructions:  127000003 cycles:  310251164 heartbeat IPC: 0.27943 cumulative IPC: 0.30083 (Simulation time: 0 hr 11 min 50 sec) 
Heartbeat CPU  0 instructions:  128000000 cycles:  313694095 heartbeat IPC: 0.29045 cumulative IPC: 0.30071 (Simulation time: 0 hr 11 min 56 sec) 
Heartbeat CPU  0 instructions:  129000000 cycles:  317547462 heartbeat IPC: 0.25951 cumulative IPC: 0.30017 (Simulation time: 0 hr 12 min 3 sec) 
Heartbeat CPU  0 instructions:  130000003 cycles:  321763505 heartbeat IPC: 0.23719 cumulative IPC: 0.29929 (Simulation time: 0 hr 12 min 10 sec) 
Heartbeat CPU  0 instructions:  131000001 cycles:  324077239 heartbeat IPC: 0.43220 cumulative IPC: 0.30031 (Simulation time: 0 hr 12 min 16 sec) 
Heartbeat CPU  0 instructions:  132000000 cycles:  328326071 heartbeat IPC: 0.23536 cumulative IPC: 0.29941 (Simulation time: 0 hr 12 min 23 sec) 
Heartbeat CPU  0 instructions:  133000000 cycles:  331141015 heartbeat IPC: 0.35525 cumulative IPC: 0.29991 (Simulation time: 0 hr 12 min 29 sec) 
Heartbeat CPU  0 instructions:  134000000 cycles:  335365887 heartbeat IPC: 0.23669 cumulative IPC: 0.29907 (Simulation time: 0 hr 12 min 36 sec) 
Heartbeat CPU  0 instructions:  135000002 cycles:  338297533 heartbeat IPC: 0.34111 cumulative IPC: 0.29945 (Simulation time: 0 hr 12 min 42 sec) 
Heartbeat CPU  0 instructions:  136000000 cycles:  342401919 heartbeat IPC: 0.24364 cumulative IPC: 0.29874 (Simulation time: 0 hr 12 min 49 sec) 
Heartbeat CPU  0 instructions:  137000000 cycles:  345494000 heartbeat IPC: 0.32341 cumulative IPC: 0.29898 (Simulation time: 0 hr 12 min 55 sec) 
Heartbeat CPU  0 instructions:  138000001 cycles:  349335686 heartbeat IPC: 0.26030 cumulative IPC: 0.29852 (Simulation time: 0 hr 13 min 2 sec) 
Heartbeat CPU  0 instructions:  139000001 cycles:  352341377 heartbeat IPC: 0.33270 cumulative IPC: 0.29883 (Simulation time: 0 hr 13 min 8 sec) 
Heartbeat CPU  0 instructions:  140000000 cycles:  356325187 heartbeat IPC: 0.25102 cumulative IPC: 0.29827 (Simulation time: 0 hr 13 min 15 sec) 
Finished CPU 0 instructions: 100000002 cycles: 335272094 cumulative IPC: 0.29827 (Simulation time: 0 hr 13 min 15 sec) 

ChampSim completed all CPUs

[ROI Statistics]
Core_0_instructions 100000002
Core_0_cycles 335272094
Core_0_IPC 0.29827

Core_0_branch_prediction_accuracy 99.25595
Core_0_branch_MPKI 1.74952
Core_0_average_ROB_occupancy_at_mispredict 116.96222

Core_0_L1D_total_access 22239085
Core_0_L1D_total_hit 19416795
Core_0_L1D_total_miss 2822290
Core_0_L1D_loads 17496169
Core_0_L1D_load_hit 14734364
Core_0_L1D_load_miss 2761805
Core_0_L1D_RFOs 4742916
Core_0_L1D_RFO_hit 4682431
Core_0_L1D_RFO_miss 60485
Core_0_L1D_prefetches 0
Core_0_L1D_prefetch_hit 0
Core_0_L1D_prefetch_miss 0
Core_0_L1D_writebacks 0
Core_0_L1D_writeback_hit 0
Core_0_L1D_writeback_miss 0
Core_0_L1D_prefetch_requested 0
Core_0_L1D_prefetch_dropped 0
Core_0_L1D_prefetch_issued 0
Core_0_L1D_prefetch_filled 0
Core_0_L1D_prefetch_useful 0
Core_0_L1D_prefetch_useless 0
Core_0_L1D_prefetch_late 0
Core_0_L1D_average_miss_latency 112.92361

Core_0_L1D_rq_access 29363128
Core_0_L1D_rq_forward 0
Core_0_L1D_rq_merged 10997724
Core_0_L1D_rq_to_cache 18365399
Core_0_L1D_rq_full 0

Core_0_L1D_wq_access 4941795
Core_0_L1D_wq_forward 5
Core_0_L1D_wq_merged 33089
Core_0_L1D_wq_to_cache 4908706
Core_0_L1D_wq_full 16648

Core_0_L1D_pq_access 0
Core_0_L1D_pq_forward 0
Core_0_L1D_pq_merged 0
Core_0_L1D_pq_to_cache 0
Core_0_L1D_pq_full 0

Core_0_L1D_acc_epochs 299160
Core_0_L1D_acc_level_0 299160
Core_0_L1D_acc_level_1 0
Core_0_L1D_acc_level_2 0
Core_0_L1D_acc_level_3 0
Core_0_L1D_acc_level_4 0
Core_0_L1D_acc_level_5 0
Core_0_L1D_acc_level_6 0
Core_0_L1D_acc_level_7 0
Core_0_L1D_acc_level_8 0
Core_0_L1D_acc_level_9 0

Core_0_L1I_total_access 32104632
Core_0_L1I_total_hit 31753801
Core_0_L1I_total_miss 350831
Core_0_L1I_loads 32104632
Core_0_L1I_load_hit 31753801
Core_0_L1I_load_miss 350831
Core_0_L1I_RFOs 0
Core_0_L1I_RFO_hit 0
Core_0_L1I_RFO_miss 0
Core_0_L1I_prefetches 0
Core_0_L1I_prefetch_hit 0
Core_0_L1I_prefetch_miss 0
Core_0_L1I_writebacks 0
Core_0_L1I_writeback_hit 0
Core_0_L1I_writeback_miss 0
Core_0_L1I_prefetch_requested 0
Core_0_L1I_prefetch_dropped 0
Core_0_L1I_prefetch_issued 0
Core_0_L1I_prefetch_filled 0
Core_0_L1I_prefetch_useful 0
Core_0_L1I_prefetch_useless 0
Core_0_L1I_prefetch_late 0
Core_0_L1I_average_miss_latency 22.09326

Core_0_L1I_rq_access 100000124
Core_0_L1I_rq_forward 0
Core_0_L1I_rq_merged 67676783
Core_0_L1I_rq_to_cache 32323341
Core_0_L1I_rq_full 0

Core_0_L1I_wq_access 0
Core_0_L1I_wq_forward 0
Core_0_L1I_wq_merged 0
Core_0_L1I_wq_to_cache 0
Core_0_L1I_wq_full 0

Core_0_L1I_pq_access 0
Core_0_L1I_pq_forward 0
Core_0_L1I_pq_merged 0
Core_0_L1I_pq_to_cache 0
Core_0_L1I_pq_full 0

Core_0_L1I_acc_epochs 299160
Core_0_L1I_acc_level_0 299160
Core_0_L1I_acc_level_1 0
Core_0_L1I_acc_level_2 0
Core_0_L1I_acc_level_3 0
Core_0_L1I_acc_level_4 0
Core_0_L1I_acc_level_5 0
Core_0_L1I_acc_level_6 0
Core_0_L1I_acc_level_7 0
Core_0_L1I_acc_level_8 0
Core_0_L1I_acc_level_9 0

Core_0_L2C_total_access 3313496
Core_0_L2C_total_hit 647164
Core_0_L2C_total_miss 2666332
Core_0_L2C_loads 3112618
Core_0_L2C_load_hit 487789
Core_0_L2C_load_miss 2624829
Core_0_L2C_RFOs 60476
Core_0_L2C_RFO_hit 30148
Core_0_L2C_RFO_miss 30328
Core_0_L2C_prefetches 14690
Core_0_L2C_prefetch_hit 4482
Core_0_L2C_prefetch_miss 10208
Core_0_L2C_writebacks 125712
Core_0_L2C_writeback_hit 124745
Core_0_L2C_writeback_miss 967
Core_0_L2C_prefetch_requested 3366176
Core_0_L2C_prefetch_dropped 0
Core_0_L2C_prefetch_issued 3366176
Core_0_L2C_prefetch_filled 13962
Core_0_L2C_prefetch_useful 3531
Core_0_L2C_prefetch_useless 10431
Core_0_L2C_prefetch_late 575
Core_0_L2C_average_miss_latency 97.34002

Core_0_L2C_rq_access 3173121
Core_0_L2C_rq_forward 0
Core_0_L2C_rq_merged 0
Core_0_L2C_rq_to_cache 3173094
Core_0_L2C_rq_full 0

Core_0_L2C_wq_access 125712
Core_0_L2C_wq_forward 27
Core_0_L2C_wq_merged 0
Core_0_L2C_wq_to_cache 125712
Core_0_L2C_wq_full 0

Core_0_L2C_pq_access 3366176
Core_0_L2C_pq_forward 0
Core_0_L2C_pq_merged 514
Core_0_L2C_pq_to_cache 3365662
Core_0_L2C_pq_full 0

Core_0_L2C_acc_epochs 299160
Core_0_L2C_acc_level_0 298892
Core_0_L2C_acc_level_1 67
Core_0_L2C_acc_level_2 41
Core_0_L2C_acc_level_3 42
Core_0_L2C_acc_level_4 23
Core_0_L2C_acc_level_5 15
Core_0_L2C_acc_level_6 17
Core_0_L2C_acc_level_7 14
Core_0_L2C_acc_level_8 10
Core_0_L2C_acc_level_9 39

Core_0_LLC_total_access 4704602
Core_0_LLC_total_hit 1928375
Core_0_LLC_total_miss 2776227
Core_0_LLC_loads 2624260
Core_0_LLC_load_hit 1065787
Core_0_LLC_load_miss 1558473
Core_0_LLC_RFOs 30323
Core_0_LLC_RFO_hit 14687
Core_0_LLC_RFO_miss 15636
Core_0_LLC_prefetches 1997771
Core_0_LLC_prefetch_hit 805722
Core_0_LLC_prefetch_miss 1192049
Core_0_LLC_writebacks 52248
Core_0_LLC_writeback_hit 42179
Core_0_LLC_writeback_miss 10069
Core_0_LLC_prefetch_requested 0
Core_0_LLC_prefetch_dropped 0
Core_0_LLC_prefetch_issued 0
Core_0_LLC_prefetch_filled 1738466
Core_0_LLC_prefetch_useful 169415
Core_0_LLC_prefetch_useless 1556149
Core_0_LLC_prefetch_late 93480
Core_0_LLC_average_miss_latency 117.53312

Core_0_LLC_rq_access 2654583
Core_0_LLC_rq_forward 0
Core_0_LLC_rq_merged 0
Core_0_LLC_rq_to_cache 2654583
Core_0_LLC_rq_full 0

Core_0_LLC_wq_access 52248
Core_0_LLC_wq_forward 1
Core_0_LLC_wq_merged 0
Core_0_LLC_wq_to_cache 52248
Core_0_LLC_wq_full 0

Core_0_LLC_pq_access 2904415
Core_0_LLC_pq_forward 0
Core_0_LLC_pq_merged 134
Core_0_LLC_pq_to_cache 2904280
Core_0_LLC_pq_full 0

Core_0_LLC_acc_epochs 347974
Core_0_LLC_acc_level_0 280085
Core_0_LLC_acc_level_1 36402
Core_0_LLC_acc_level_2 16013
Core_0_LLC_acc_level_3 5643
Core_0_LLC_acc_level_4 2566
Core_0_LLC_acc_level_5 3741
Core_0_LLC_acc_level_6 1147
Core_0_LLC_acc_level_7 725
Core_0_LLC_acc_level_8 372
Core_0_LLC_acc_level_9 1280

Core_0_major_page_fault 0
Core_0_minor_page_fault 11159

[MLOP] History of tracked zone:
IIIIIIIIIIIIIIIIIIIIIIIIIIIIIIIIIIIIIIIIIIIIIIIIIIIIIIIIIIIIIIII
IIIIIIIIIIIIIIIIIIIIIIIIIIIAIIIIIIIIIIIIIIIIIIIIIIIIIIIIIIIIIIII
IIIIIIIIIIIIIIIIIIIIIIAIIIIAIIIIIIIIIIIIIIIIIIIIIIIIIIIIIIIIIIII
IIIIIIIIIIIIIIIIIIIIIIAAIIIAIIIIIIIIIIIIIIIIIIIIIIIIIIIIIIIIIIII
IIIIIIIIIIIIIIIIIIIIIIIIIIIA4IIIIIIIIIIIIIIIIIIIIIIIIIIIIIIIIIII
IIIIIIIIIIIIIIIIIIIIIIA4IIIA4IIIIIIIIIIIIIIIIIIIIIIIIIIIIIIIIIII
IIIIIIIIIIIIIIIIIIIIIIAA4IIA4IIIIIIIIIIIIIIIIIIIIIIIIIIIIIIIIIII
IIIIIIIIIIIIIIIIIIIIIIIIIIIA4IIIIIIIIIIIIIIIIIIIIIIIIIIIIIIIIIII
IIIIIIIIIIIIIIIIIIIIIIA4IIIA4IIIIIIIIIIIIIIIIIIIIIIIIIIIIIIIIIII
IIIIIIIIIIIIIIIIIIIIIIAA4IIA4IIIIIIIIIIIIIIIIIIIIIIIIIIIIIIIIIII
IIIIIIIIIIIIIIIIIIIIIIIIIIIA4IIIIIIIIIIIIIIIIIIIIIIIIIIIIIIIIIII
IIIIIIIIIIIIIIIIIIIIIIA4IIIA4IIIIIIIIIIIIIIIIIIIIIIIIIIIIIIIIIII
IIIIIIIIIIIIIIIIIIIIIIAA4IIA4IIIIIIIIIIIIIIIIIIIIIIIIIIIIIIIIIII
IIIIIIIIIIIIIIIIIIIIIIIIIIIA4IIIIIIIIIIIIIIIIIIIIIIIIIIIIIIIIIII
IIIIIIIIIIIIIIIIIIIIIIA4IIIA4IIIIIIIIIIIIIIIIIIIIIIIIIIIIIIIIIII
IIIIIIIIIIIIIIIIIIIIIIAA4IIA4IIIIIIIIIIIIIIIIIIIIIIIIIIIIIIIIIII
IIIIIIIIIIIIIIIIIIIIIIIIIIIA4IIIIIIIIIIIIIIIIIIIIIIIIIIIIIIIIIII
IIIIIIIIIIIIIIIIIIIIIIA4IIIA4IIIIIIIIIIIIIIIIIIIIIIIIIIIIIIIIIII
IIIIIIIIIIIIIIIIIIIIIIAA4IIA4IIIIIIIIIIIIIIIIIIIIIIIIIIIIIIIIIII
IIIIIIIIIIIIIIIIIIIIIIIIIIIA4IIIIIIIIIIIIIIIIIIIIIIIIIIIIIIIIIII
IIIIIIIIIIIIIIIIIIIIIIA4IIIA4IIIIIIIIIIIIIIIIIIIIIIIIIIIIIIIIIII
IIIIIIIIIIIIIIIIIIIIIIAA4IIA4IIIIIIIIIIIIIIIIIIIIIIIIIIIIIIIIIII
IIIIIIIIIIIIIIIIIIIIIIIIIIIA4IIIIIIIIIIIIIIIIIIIIIIIIIIIIIIIIIII
IIIIIIIIIIIIIIIIIIIIIIA4IIIA4IIIIIIIIIIIIIIIIIIIIIIIIIIIIIIIIIII
IIIIIIIIIIIIIIIIIIIIIIAA4IIA4IIIIIIIIIIIIIIIIIIIIIIIIIIIIIIIIIII
IIIIIIIIIIIIIIIIIIIIIIIIIIIA4IIIIIIIIIIIIIIIIIIIIIIIIIIIIIIIIIII
IIIIIIIIIIIIIIIIIIIIIIA4IIIA4IIIIIIIIIIIIIIIIIIIIIIIIIIIIIIIIIII
IIIIIIIIIIIIIIIIIIIIIIAA4IIA4IIIIIIIIIIIIIIIIIIIIIIIIIIIIIIIIIII
IIIIIIIIIIIIIIIIIIIIIIIIIIIA4IIIIIIIIIIIIIIIIIIIIIIIIIIIIIIIIIII
IIIIIIIIIIIIIIIIIIIIIIA4IIIA4IIIIIIIIIIIIIIIIIIIIIIIIIIIIIIIIIII
IIIIIIIIIIIIIIIIIIIIIIAA4IIA4IIIIIIIIIIIIIIIIIIIIIIIIIIIIIIIIIII
IIIIIIIIIIIIIIIIIIIIIIIIIIIA4IIIIIIIIIIIIIIIIIIIIIIIIIIIIIIIIIII
IIIIIIIIIIIIIIIIIIIIIIA4IIIA4IIIIIIIIIIIIIIIIIIIIIIIIIIIIIIIIIII
IIIIIIIIIIIIIIIIIIIIIIAA4IIA4IIIIIIIIIIIIIIIIIIIIIIIIIIIIIIIIIII
IIIIIIIIIIIIIIIIIIIIIIIIIIIA4IIIIIIIIIIIIIIIIIIIIIIIIIIIIIIIIIII
IIIIIIIIIIIIIIIIIIIIIIA4IIIA4IIIIIIIIIIIIIIIIIIIIIIIIIIIIIIIIIII
IIIIIIIIIIIIIIIIIIIIIIAA4IIA4IIIIIIIIIIIIIIIIIIIIIIIIIIIIIIIIIII
IIIIIIIIIIIIIIIIIIIIIIIIIIIA4IIIIIIIIIIIIIIIIIIIIIIIIIIIIIIIIIII
IIIIIIIIIIIIIIIIIIIIIIA4IIIA4IIIIIIIIIIIIIIIIIIIIIIIIIIIIIIIIIII
IIIIIIIIIIIIIIIIIIIIIIAA4IIA4IIIIIIIIIIIIIIIIIIIIIIIIIIIIIIIIIII
IIIIIIIIIIIIIIIIIIIIIIIIIIIA4IIIIIIIIIIIIIIIIIIIIIIIIIIIIIIIIIII
IIIIIIIIIIIIIIIIIIIIIIA4IIIA4IIIIIIIIIIIIIIIIIIIIIIIIIIIIIIIIIII
IIIIIIIIIIIIIIIIIIIIIIAA4IIA4IIIIIIIIIIIIIIIIIIIIIIIIIIIIIIIIIII
IIIIIIIIIIIIIIIIIIIIIIIIIIIA4IIIIIIIIIIIIIIIIIIIIIIIIIIIIIIIIIII
IIIIIIIIIIIIIIIIIIIIIIA4IIIA4IIIIIIIIIIIIIIIIIIIIIIIIIIIIIIIIIII
IIIIIIIIIIIIIIIIIIIIIIAA4IIA4IIIIIIIIIIIIIIIIIIIIIIIIIIIIIIIIIII
IIIIIIIIIIIIIIIIIIIIIIIIIIIA4IIIIIIIIIIIIIIIIIIIIIIIIIIIIIIIIIII
IIIIIIIIIIIIIIIIIIIIIIA4IIIA4IIIIIIIIIIIIIIIIIIIIIIIIIIIIIIIIIII
IIIIIIIIIIIIIIIIIIIIIIAA4IIA4IIIIIIIIIIIIIIIIIIIIIIIIIIIIIIIIIII
IIIIIIIIIIIIIIIIIIIIIIIIIIIA4IIIIIIIIIIIIIIIIIIIIIIIIIIIIIIIIIII
IIIIIIIIIIIIIIIIIIIIIIA4IIIA4IIIIIIIIIIIIIIIIIIIIIIIIIIIIIIIIIII
IIIIIIIIIIIIIIIIIIIIIIAA4IIA4IIIIIIIIIIIIIIIIIIIIIIIIIIIIIIIIIII
IIIIIIIIIIIIIIIIIIIIIIIIIIIA4IIIIIIIIIIIIIIIIIIIIIIIIIIIIIIIIIII
IIIIIIIIIIIIIIIIIIIIIIA4IIIA4IIIIIIIIIIIIIIIIIIIIIIIIIIIIIIIIIII
IIIIIIIIIIIIIIIIIIIIIIAA4IIA4IIIIIIIIIIIIIIIIIIIIIIIIIIIIIIIIIII
IIIIIIIIIIIIIIIIIIIIIIIIIIIA4IIIIIIIIIIIIIIIIIIIIIIIIIIIIIIIIIII
IIIIIIIIIIIIIIIIIIIIIIA4IIIA4IIIIIIIIIIIIIIIIIIIIIIIIIIIIIIIIIII
IIIIIIIIIIIIIIIIIIIIIIAA4IIA4IIIIIIIIIIIIIIIIIIIIIIIIIIIIIIIIIII
IIIIIIIIIIIIIIIIIIIIIIIIIIIA4IIIIIIIIIIIIIIIIIIIIIIIIIIIIIIIIIII
IIIIIIIIIIIIIIIIIIIIIIA4IIIA4IIIIIIIIIIIIIIIIIIIIIIIIIIIIIIIIIII
IIIIIIIIIIIIIIIIIIIIIIAA4IIA4IIIIIIIIIIIIIIIIIIIIIIIIIIIIIIIIIII
IIIIIIIIIIIIIIIIIIIIIIIIIIIA4IIIIIIIIIIIIIIIIIIIIIIIIIIIIIIIIIII
IIIIIIIIIIIIIIIIIIIIIIA4IIIA4IIIIIIIIIIIIIIIIIIIIIIIIIIIIIIIIIII
IIIIIIIIIIIIIIIIIIIIIIAA4IIA4IIIIIIIIIIIIIIIIIIIIIIIIIIIIIIIIIII
IIIIIIIIIIIIIIIIIIIIIIIIIIIA4IIIIIIIIIIIIIIIIIIIIIIIIIIIIIIIIIII
IIIIIIIIIIIIIIIIIIIIIIA4IIIA4IIIIIIIIIIIIIIIIIIIIIIIIIIIIIIIIIII
IIIIIIIIIIIIIIIIIIIIIIAA4IIA4IIIIIIIIIIIIIIIIIIIIIIIIIIIIIIIIIII
IIIIIIIIIIIIIIIIIIIIIIIIIIIA4IIIIIIIIIIIIIIIIIIIIIIIIIIIIIIIIIII
IIIIIIIIIIIIIIIIIIIIIIA4IIIA4IIIIIIIIIIIIIIIIIIIIIIIIIIIIIIIIIII
IIIIIIIIIIIIIIIIIIIIIIAA4IIA4IIIIIIIIIIIIIIIIIIIIIIIIIIIIIIIIIII
IIIIIIIIIIIIIIIIIIIIIIIIIIIA4IIIIIIIIIIIIIIIIIIIIIIIIIIIIIIIIIII
IIIIIIIIIIIIIIIIIIIIIIA4IIIA4IIIIIIIIIIIIIIIIIIIIIIIIIIIIIIIIIII
IIIIIIIIIIIIIIIIIIIIIIAA4IIA4IIIIIIIIIIIIIIIIIIIIIIIIIIIIIIIIIII
IIIIIIIIIIIIIIIIIIIIIIIIIIIA4IIIIIIIIIIIIIIIIIIIIIIIIIIIIIIIIIII
IIIIIIIIIIIIIIIIIIIIIIA4IIIA4IIIIIIIIIIIIIIIIIIIIIIIIIIIIIIIIIII
IIIIIIIIIIIIIIIIIIIIIIAA4IIA4IIIIIIIIIIIIIIIIIIIIIIIIIIIIIIIIIII
IIIIIIIIIIIIIIIIIIIIIIIIIIIA4IIIIIIIIIIIIIIIIIIIIIIIIIIIIIIIIIII
IIIIIIIIIIIIIIIIIIIIIIA4IIIA4IIIIIIIIIIIIIIIIIIIIIIIIIIIIIIIIIII
IIIIIIIIIIIIIIIIIIIIIIAA4IIA4IIIIIIIIIIIIIIIIIIIIIIIIIIIIIIIIIII
IIIIIIIIIIIIIIIIIIIIIIIIIIIA4IIIIIIIIIIIIIIIIIIIIIIIIIIIIIIIIIII
IIIIIIIIIIIIIIIIIIIIIIA4IIIA4IIIIIIIIIIIIIIIIIIIIIIIIIIIIIIIIIII
IIIIIIIIIIIIIIIIIIIIIIAA4IIA4IIIIIIIIIIIIIIIIIIIIIIIIIIIIIIIIIII
IIIIIIIIIIIIIIIIIIIIIIIIIIIA4IIIIIIIIIIIIIIIIIIIIIIIIIIIIIIIIIII
IIIIIIIIIIIIIIIIIIIIIIA4IIIA4IIIIIIIIIIIIIIIIIIIIIIIIIIIIIIIIIII
IIIIIIIIIIIIIIIIIIIIIIAA4IIA4IIIIIIIIIIIIIIIIIIIIIIIIIIIIIIIIIII
IIIIIIIIIIIIIIIIIIIIIIIIIIIA4IIIIIIIIIIIIIIIIIIIIIIIIIIIIIIIIIII
IIIIIIIIIIIIIIIIIIIIIIA4IIIA4IIIIIIIIIIIIIIIIIIIIIIIIIIIIIIIIIII
IIIIIIIIIIIIIIIIIIIIIIAA4IIA4IIIIIIIIIIIIIIIIIIIIIIIIIIIIIIIIIII
IIIIIIIIIIIIIIIIIIIIIIIIIIIA4IIIIIIIIIIIIIIIIIIIIIIIIIIIIIIIIIII
IIIIIIIIIIIIIIIIIIIIIIA4IIIA4IIIIIIIIIIIIIIIIIIIIIIIIIIIIIIIIIII
IIIIIIIIIIIIIIIIIIIIIIAA4IIA4IIIIIIIIIIIIIIIIIIIIIIIIIIIIIIIIIII
IIIIIIIIIIIIIIIIIIIIIIIIIIIA4IIIIIIIIIIIIIIIIIIIIIIIIIIIIIIIIIII
IIIIIIIIIIIIIIIIIIIIIIA4IIIA4IIIIIIIIIIIIIIIIIIIIIIIIIIIIIIIIIII
IIIIIIIIIIIIIIIIIIIIIIAA4IIA4IIIIIIIIIIIIIIIIIIIIIIIIIIIIIIIIIII
IIIIIIIIIIIIIIIIIIIIIIIIIIIA4IIIIIIIIIIIIIIIIIIIIIIIIIIIIIIIIIII
IIIIIIIIIIIIIIIIIIIIIIA4IIIA4IIIIIIIIIIIIIIIIIIIIIIIIIIIIIIIIIII
IIIIIIIIIIIIIIIIIIIIIIAA4IIA4IIIIIIIIIIIIIIIIIIIIIIIIIIIIIIIIIII
IIIIIIIIIIIIIIIIIIIIIIIIIIIA4IIIIIIIIIIIIIIIIIIIIIIIIIIIIIIIIIII
IIIIIIIIIIIIIIIIIIIIIIA4IIIA4IIIIIIIIIIIIIIIIIIIIIIIIIIIIIIIIIII
IIIIIIIIIIIIIIIIIIIIIIAA4IIA4IIIIIIIIIIIIIIIIIIIIIIIIIIIIIIIIIII
IIIIIIIIIIIIIIIIIIIIIIIIIIIA4IIIIIIIIIIIIIIIIIIIIIIIIIIIIIIIIIII
IIIIIIIIIIIIIIIIIIIIIIA4IIIA4IIIIIIIIIIIIIIIIIIIIIIIIIIIIIIIIIII
IIIIIIIIIIIIIIIIIIIIIIAA4IIA4IIIIIIIIIIIIIIIIIIIIIIIIIIIIIIIIIII
IIIIIIIIIIIIIIIIIIIIIIIIIIIA4IIIIIIIIIIIIIIIIIIIIIIIIIIIIIIIIIII
IIIIIIIIIIIIIIIIIIIIIIA4IIIA4IIIIIIIIIIIIIIIIIIIIIIIIIIIIIIIIIII
IIIIIIIIIIIIIIIIIIIIIIAA4IIA4IIIIIIIIIIIIIIIIIIIIIIIIIIIIIIIIIII
IIIIIIIIIIIIIIIIIIIIIIIIIIIA4IIIIIIIIIIIIIIIIIIIIIIIIIIIIIIIIIII
IIIIIIIIIIIIIIIIIIIIIIA4IIIA4IIIIIIIIIIIIIIIIIIIIIIIIIIIIIIIIIII
IIIIIIIIIIIIIIIIIIIIIIAA4IIA4IIIIIIIIIIIIIIIIIIIIIIIIIIIIIIIIIII
IIIIIIIIIIIIIIIIIIIIIIIIIIIA4IIIIIIIIIIIIIIIIIIIIIIIIIIIIIIIIIII
IIIIIIIIIIIIIIIIIIIIIIA4IIIA4IIIIIIIIIIIIIIIIIIIIIIIIIIIIIIIIIII
IIIIIIIIIIIIIIIIIIIIIIAA4IIA4IIIIIIIIIIIIIIIIIIIIIIIIIIIIIIIIIII
IIIIIIIIIIIIIIIIIIIIIIIIIIIA4IIIIIIIIIIIIIIIIIIIIIIIIIIIIIIIIIII
IIIIIIIIIIIIIIIIIIIIIIA4IIIA4IIIIIIIIIIIIIIIIIIIIIIIIIIIIIIIIIII
IIIIIIIIIIIIIIIIIIIIIIAA4IIA4IIIIIIIIIIIIIIIIIIIIIIIIIIIIIIIIIII
IIIIIIIIIIIIIIIIIIIIIIIIIIIA4IIIIIIIIIIIIIIIIIIIIIIIIIIIIIIIIIII
IIIIIIIIIIIIIIIIIIIIIIA4IIIA4IIIIIIIIIIIIIIIIIIIIIIIIIIIIIIIIIII
IIIIIIIIIIIIIIIIIIIIIIAA4IIA4IIIIIIIIIIIIIIIIIIIIIIIIIIIIIIIIIII
IIIIIIIIIIIIIIIIIIIIIIIIIIIA4IIIIIIIIIIIIIIIIIIIIIIIIIIIIIIIIIII
IIIIIIIIIIIIIIIIIIIIIIA4IIIA4IIIIIIIIIIIIIIIIIIIIIIIIIIIIIIIIIII
IIIIIIIIIIIIIIIIIIIIIIAA4IIA4IIIIIIIIIIIIIIIIIIIIIIIIIIIIIIIIIII
IIIIIIIIIIIIIIIIIIIIIIIIIIIA4IIIIIIIIIIIIIIIIIIIIIIIIIIIIIIIIIII
IIIIIIIIIIIIIIIIIIIIIIA4IIIA4IIIIIIIIIIIIIIIIIIIIIIIIIIIIIIIIIII
IIIIIIIIIIIIIIIIIIIIIIAA4IIA4IIIIIIIIIIIIIIIIIIIIIIIIIIIIIIIIIII
IIIIIIIIIIIIIIIIIIIIIIIIIIIA4IIIIIIIIIIIIIIIIIIIIIIIIIIIIIIIIIII
IIIIIIIIIIIIIIIIIIIIIIA4IIIA4IIIIIIIIIIIIIIIIIIIIIIIIIIIIIIIIIII
IIIIIIIIIIIIIIIIIIIIIIAA4IIA4IIIIIIIIIIIIIIIIIIIIIIIIIIIIIIIIIII
IIIIIIIIIIIIIIIIIIIIIIIIIIIA4IIIIIIIIIIIIIIIIIIIIIIIIIIIIIIIIIII
IIIIIIIIIIIIIIIIIIIIIIA4IIIA4IIIIIIIIIIIIIIIIIIIIIIIIIIIIIIIIIII
IIIIIIIIIIIIIIIIIIIIIIAA4IIA4IIIIIIIIIIIIIIIIIIIIIIIIIIIIIIIIIII
IIIIIIIIIIIIIIIIIIIIIIIIIIIA4IIIIIIIIIIIIIIIIIIIIIIIIIIIIIIIIIII
IIIIIIIIIIIIIIIIIIIIIIA4IIIA4IIIIIIIIIIIIIIIIIIIIIIIIIIIIIIIIIII
IIIIIIIIIIIIIIIIIIIIIIAA4IIA4IIIIIIIIIIIIIIIIIIIIIIIIIIIIIIIIIII
IIIIIIIIIIIIIIIIIIIIIIIIIIIA4IIIIIIIIIIIIIIIIIIIIIIIIIIIIIIIIIII
IIIIIIIIIIIIIIIIIIIIIIA4IIIA4IIIIIIIIIIIIIIIIIIIIIIIIIIIIIIIIIII
IIIIIIIIIIIIIIIIIIIIIIAA4IIA4IIIIIIIIIIIIIIIIIIIIIIIIIIIIIIIIIII
IIIIIIIIIIIIIIIIIIIIIIIIIIIA4IIIIIIIIIIIIIIIIIIIIIIIIIIIIIIIIIII
IIIIIIIIIIIIIIIIIIIIIIA4IIIA4IIIIIIIIIIIIIIIIIIIIIIIIIIIIIIIIIII
IIIIIIIIIIIIIIIIIIIIIIAA4IIA4IIIIIIIIIIIIIIIIIIIIIIIIIIIIIIIIIII
IIIIIIIIIIIIIIIIIIIIIIIIIIIA4IIIIIIIIIIIIIIIIIIIIIIIIIIIIIIIIIII
IIIIIIIIIIIIIIIIIIIIIIA4IIIA4IIIIIIIIIIIIIIIIIIIIIIIIIIIIIIIIIII
IIIIIIIIIIIIIIIIIIIIIIAA4IIA4IIIIIIIIIIIIIIIIIIIIIIIIIIIIIIIIIII
IIIIIIIIIIIIIIIIIIIIIIIIIIIA4IIIIIIIIIIIIIIIIIIIIIIIIIIIIIIIIIII
IIIIIIIIIIIIIIIIIIIIIIA4IIIA4IIIIIIIIIIIIIIIIIIIIIIIIIIIIIIIIIII
IIIIIIIIIIIIIIIIIIIIIIAA4IIA4IIIIIIIIIIIIIIIIIIIIIIIIIIIIIIIIIII
IIIIIIIIIIIIIIIIIIIIIIIIIIIA4IIIIIIIIIIIIIIIIIIIIIIIIIIIIIIIIIII
IIIIIIIIIIIIIIIIIIIIIIA4IIIA4IIIIIIIIIIIIIIIIIIIIIIIIIIIIIIIIIII
IIIIIIIIIIIIIIIIIIIIIIAA4IIA4IIIIIIIIIIIIIIIIIIIIIIIIIIIIIIIIIII
IIIIIIIIIIIIIIIIIIIIIIIIIIIA4IIIIIIIIIIIIIIIIIIIIIIIIIIIIIIIIIII
IIIIIIIIIIIIIIIIIIIIIIA4IIIA4IIIIIIIIIIIIIIIIIIIIIIIIIIIIIIIIIII
IIIIIIIIIIIIIIIIIIIIIIAA4IIA4IIIIIIIIIIIIIIIIIIIIIIIIIIIIIIIIIII
IIIIIIIIIIIIIIIIIIIIIIIIIIIA4IIIIIIIIIIIIIIIIIIIIIIIIIIIIIIIIIII
IIIIIIIIIIIIIIIIIIIIIIA4IIIA4IIIIIIIIIIIIIIIIIIIIIIIIIIIIIIIIIII
IIIIIIIIIIIIIIIIIIIIIIAA4IIA4IIIIIIIIIIIIIIIIIIIIIIIIIIIIIIIIIII
IIIIIIIIIIIIIIIIIIIIIIIIIIIA4IIIIIIIIIIIIIIIIIIIIIIIIIIIIIIIIIII
IIIIIIIIIIIIIIIIIIIIIIA4IIIA4IIIIIIIIIIIIIIIIIIIIIIIIIIIIIIIIIII
IIIIIIIIIIIIIIIIIIIIIIAA4IIA4IIIIIIIIIIIIIIIIIIIIIIIIIIIIIIIIIII
IIIIIIIIIIIIIIIIIIIIIIIIIIIA4IIIIIIIIIIIIIIIIIIIIIIIIIIIIIIIIIII
IIIIIIIIIIIIIIIIIIIIIIA4IIIA4IIIIIIIIIIIIIIIIIIIIIIIIIIIIIIIIIII
IIIIIIIIIIIIIIIIIIIIIIAA4IIA4IIIIIIIIIIIIIIIIIIIIIIIIIIIIIIIIIII
IIIIIIIIIIIIIIIIIIIIIIIIIIIA4IIIIIIIIIIIIIIIIIIIIIIIIIIIIIIIIIII
IIIIIIIIIIIIIIIIIIIIIIA4IIIA4IIIIIIIIIIIIIIIIIIIIIIIIIIIIIIIIIII
IIIIIIIIIIIIIIIIIIIIIIAA4IIA4IIIIIIIIIIIIIIIIIIIIIIIIIIIIIIIIIII
IIIIIIIIIIIIIIIIIIIIIIIIIIIA4IIIIIIIIIIIIIIIIIIIIIIIIIIIIIIIIIII
IIIIIIIIIIIIIIIIIIIIIIA4IIIA4IIIIIIIIIIIIIIIIIIIIIIIIIIIIIIIIIII
IIIIIIIIIIIIIIIIIIIIIIAA4IIA4IIIIIIIIIIIIIIIIIIIIIIIIIIIIIIIIIII
IIIIIIIIIIIIIIIIIIIIIIIIIIIA4IIIIIIIIIIIIIIIIIIIIIIIIIIIIIIIIIII
IIIIIIIIIIIIIIIIIIIIIIA4IIIA4IIIIIIIIIIIIIIIIIIIIIIIIIIIIIIIIIII
IIIIIIIIIIIIIIIIIIIIIIAA4IIA4IIIIIIIIIIIIIIIIIIIIIIIIIIIIIIIIIII
IIIIIIIIIIIIIIIIIIIIIIIIIIIA4IIIIIIIIIIIIIIIIIIIIIIIIIIIIIIIIIII
IIIIIIIIIIIIIIIIIIIIIIA4IIIA4IIIIIIIIIIIIIIIIIIIIIIIIIIIIIIIIIII
IIIIIIIIIIIIIIIIIIIIIIAA4IIA4IIIIIIIIIIIIIIIIIIIIIIIIIIIIIIIIIII
IIIIIIIIIIIIIIIIIIIIIIIIIIIA4IIIIIIIIIIIIIIIIIIIIIIIIIIIIIIIIIII
IIIIIIIIIIIIIIIIIIIIIIA4IIIA4IIIIIIIIIIIIIIIIIIIIIIIIIIIIIIIIIII
IIIIIIIIIIIIIIIIIIIIIIAA4IIA4IIIIIIIIIIIIIIIIIIIIIIIIIIIIIIIIIII
IIIIIIIIIIIIIIIIIIIIIIIIIIIA4IIIIIIIIIIIIIIIIIIIIIIIIIIIIIIIIIII
IIIIIIIIIIIIIIIIIIIIIIA4IIIA4IIIIIIIIIIIIIIIIIIIIIIIIIIIIIIIIIII
IIIIIIIIIIIIIIIIIIIIIIAA4IIA4IIIIIIIIIIIIIIIIIIIIIIIIIIIIIIIIIII
IIIIIIIIIIIIIIIIIIIIIIIIIIIA4IIIIIIIIIIIIIIIIIIIIIIIIIIIIIIIIIII
IIIIIIIIIIIIIIIIIIIIIIA4IIIA4IIIIIIIIIIIIIIIIIIIIIIIIIIIIIIIIIII
IIIIIIIIIIIIIIIIIIIIIIAA4IIA4IIIIIIIIIIIIIIIIIIIIIIIIIIIIIIIIIII
IIIIIIIIIIIIIIIIIIIIIIIIIIIA4IIIIIIIIIIIIIIIIIIIIIIIIIIIIIIIIIII
IIIIIIIIIIIIIIIIIIIIIIA4IIIA4IIIIIIIIIIIIIIIIIIIIIIIIIIIIIIIIIII
IIIIIIIIIIIIIIIIIIIIIIAA4IIA4IIIIIIIIIIIIIIIIIIIIIIIIIIIIIIIIIII
IIIIIIIIIIIIIIIIIIIIIIIIIIIA4IIIIIIIIIIIIIIIIIIIIIIIIIIIIIIIIIII
IIIIIIIIIIIIIIIIIIIIIIA4IIIA4IIIIIIIIIIIIIIIIIIIIIIIIIIIIIIIIIII
IIIIIIIIIIIIIIIIIIIIIIAA4IIA4IIIIIIIIIIIIIIIIIIIIIIIIIIIIIIIIIII
IIIIIIIIIIIIIIIIIIIIIIIIIIIA4IIIIIIIIIIIIIIIIIIIIIIIIIIIIIIIIIII
IIIIIIIIIIIIIIIIIIIIIIA4IIIA4IIIIIIIIIIIIIIIIIIIIIIIIIIIIIIIIIII
IIIIIIIIIIIIIIIIIIIIIIAA4IIA4IIIIIIIIIIIIIIIIIIIIIIIIIIIIIIIIIII
IIIIIIIIIIIIIIIIIIIIIIIIIIIA4IIIIIIIIIIIIIIIIIIIIIIIIIIIIIIIIIII
IIIIIIIIIIIIIIIIIIIIIIA4IIIA4IIIIIIIIIIIIIIIIIIIIIIIIIIIIIIIIIII
IIIIIIIIIIIIIIIIIIIIIIAA4IIA4IIIIIIIIIIIIIIIIIIIIIIIIIIIIIIIIIII
IIIIIIIIIIIIIIIIIIIIIIIIIIIA4IIIIIIIIIIIIIIIIIIIIIIIIIIIIIIIIIII
IIIIIIIIIIIIIIIIIIIIIIA4IIIA4IIIIIIIIIIIIIIIIIIIIIIIIIIIIIIIIIII
IIIIIIIIIIIIIIIIIIIIIIAA4IIA4IIIIIIIIIIIIIIIIIIIIIIIIIIIIIIIIIII
IIIIIIIIIIIIIIIIIIIIIIIIIIIA4IIIIIIIIIIIIIIIIIIIIIIIIIIIIIIIIIII
IIIIIIIIIIIIIIIIIIIIIIA4IIIA4IIIIIIIIIIIIIIIIIIIIIIIIIIIIIIIIIII
IIIIIIIIIIIIIIIIIIIIIIAA4IIA4IIIIIIIIIIIIIIIIIIIIIIIIIIIIIIIIIII
IIIIIIIIIIIIIIIIIIIIIIIIIIIA4IIIIIIIIIIIIIIIIIIIIIIIIIIIIIIIIIII
IIIIIIIIIIIIIIIIIIIIIIA4IIIA4IIIIIIIIIIIIIIIIIIIIIIIIIIIIIIIIIII
IIIIIIIIIIIIIIIIIIIIIIAA4IIA4IIIIIIIIIIIIIIIIIIIIIIIIIIIIIIIIIII
[MLOP] Prefetch Degree Mean: 1.36259
[MLOP] Prefetch Degree SD: 1.06136
[MLOP] Max Score Left Mean (%): 3.38647
[MLOP] Max Score Left SD (%): 4.53286
[MLOP] Max Score Right Mean (%): 49.84875
[MLOP] Max Score Right SD (%): 4.37118

Channel_0_RQ_row_buffer_hit 1947804
Channel_0_RQ_row_buffer_miss 818354
Channel_0_WQ_row_buffer_hit 3075
Channel_0_WQ_row_buffer_miss 18233
Channel_0_WQ_full 0
Channel_0_dbus_congested 1083562

avg_congested_cycle 8

DRAM_bw_pochs 1391896
DRAM_bw_level_0 885200
DRAM_bw_level_1 480196
DRAM_bw_level_2 22666
DRAM_bw_level_3 3834
