*************************************************
   ChampSim Multicore Out-of-Order Simulator
   Last compiled: Feb  6 2025 20:33:19
*************************************************
parsing config file: /home/wzz/Pythia/config/pythia.ini

trace_0 /home/wzz/Pythia/traces/623.xalancbmk_s-10B.champsimtrace.xz
adding L2C_PREFETCHER: Scooby
Initialize SHIP state
warmup_instructions 40000000
simulation_instructions 100000000
champsim_seed 163
measure_ipc 0
measure_ipc_epoch 1000
measure_dram_bw 1
measure_dram_bw_epoch 256
measure_cache_acc 1
measure_cache_acc_epoch 1024
l1d_perfect 0
l2c_perfect 0
llc_perfect 0
l1d_semi_perfect 0
l2c_semi_perfect 0
llc_semi_perfect 0
semi_perfect_cache_page_buffer_size 64

num_cpus 1
cpu_freq 4000
dram_io_freq 2400
page_size 4096
block_size 64
max_read_per_cycle 8
max_fill_per_cycle 1
dram_channels 1
log2_dram_channels 0
dram_ranks 1
dram_banks 8
dram_rows 65536
dram_columns 128
dram_row_size 8
dram_size 4096
dram_pages 1048576

fetch_width 6
decode_width 6
exec_width 4
lq_width 2
sq_width 2
retire_width 4
scheduler_size 128
branch_mispredict_penalty 20
rob_size 256
lq_size 72
sq_size 56
num_instr_destinations_sparc 4
num_instr_destinations 2
num_instr_sources 4

itlb_set 16
itlb_way 8
itlb_rq_size 16
itlb_wq_size 16
itlb_pq_size 0
itlb_mshr_size 8
itlb_latency 1

dtlb_set 16
dtlb_way 4
dtlb_rq_size 16
dtlb_wq_size 16
dtlb_pq_size 0
dtlb_mshr_size 8
dtlb_latency 1

stlb_set 128
stlb_way 12
stlb_rq_size 32
stlb_wq_size 32
stlb_pq_size 0
stlb_mshr_size 16
stlb_latency 8

l1i_size 32
l1i_set 64
l1i_way 8
l1i_rq_size 64
l1i_wq_size 64
l1i_pq_size 8
l1i_mshr_size 8
l1i_latency 1

l1d_size 32
l1d_set 64
l1d_way 8
l1d_rq_size 64
l1d_wq_size 64
l1d_pq_size 8
l1d_mshr_size 16
l1d_latency 4

l2c_size 256
l2c_set 512
l2c_way 8
l2c_rq_size 32
l2c_wq_size 32
l2c_pq_size 32
l2c_mshr_size 32
l2c_latency 10

llc_size 2048
llc_set 2048
llc_way 16
llc_rq_size 32
llc_wq_size 32
llc_pq_size 32
llc_mshr_size 64
llc_latency 20

dram_channel_width 8
dram_wq_size 64
dram_rq_size 64
tRP 15
tRCD 15
tCAS 12.5
dram_dbus_turn_around_time 30
dram_write_high_wm 56
dram_write_low_wm 48
min_dram_writes_per_switch 16
dram_mtps 2400
dram_dbus_return_time 13

scooby_alpha 0.0065088
scooby_gamma 0.556301
scooby_epsilon 0.00182284
scooby_state_num_bits 10
scooby_max_states 1024
scooby_seed 200
scooby_policy EGreedy
scooby_learning_type SARSA
scooby_actions 1,3,4,5,10,11,12,22,23,30,32,-1,-3,-6,0,
scooby_max_actions 15
scooby_pt_size 256
scooby_st_size 64
scooby_max_pcs 5
scooby_max_offsets 5
scooby_max_deltas 5
scooby_reward_none -4
scooby_reward_incorrect -8
scooby_reward_correct_untimely 12
scooby_reward_correct_timely 20
scooby_brain_zero_init 0
scooby_enable_reward_all 0
scooby_enable_track_multiple 0
scooby_enable_reward_out_of_bounds 1
scooby_reward_out_of_bounds -12
scooby_state_type 1
scooby_state_hash_type 11
scooby_access_debug 0
scooby_print_access_debug 0
scooby_print_access_debug_pc deadbeef
scooby_print_access_debug_pc_count 0
scooby_print_trace 0
scooby_enable_state_action_stats 1
scooby_enable_reward_tracker_hit 0
scooby_reward_tracker_hit -2
scooby_enable_featurewise_engine 1
scooby_pref_degree 1
scooby_enable_dyn_degree 1
scooby_max_to_avg_q_thresholds 0.5,1,2,
scooby_dyn_degrees 1,2,4,4,
scooby_multi_deg_select_type 2
scooby_last_pref_offset_conf_thresholds 1,3,8,
scooby_dyn_degrees_type2 1,2,4,6,
scooby_action_tracker_size 2
scooby_high_bw_thresh 4
scooby_enable_hbw_reward 1
scooby_reward_hbw_correct_timely 20
scooby_reward_hbw_correct_untimely 12
scooby_reward_hbw_incorrect -14
scooby_reward_hbw_none -2
scooby_reward_hbw_out_of_bounds -12
scooby_reward_hbw_tracker_hit -2
scooby_last_pref_offset_conf_thresholds_hbw 1,3,8,
scooby_dyn_degrees_type2_hbw 1,2,4,6,

le_enable_trace 0
le_trace_interval 0
le_trace_file_name 
le_trace_state 0
le_enable_score_plot 0
le_plot_file_name 
le_plot_actions 
le_enable_action_trace 0
le_action_trace_interval 0
le_action_trace_name 
le_enable_action_plot 0

le_featurewise_active_features PC, PC_Delta
le_featurewise_num_tilings 3,3,
le_featurewise_num_tiles 128,128,
le_featurewise_hash_types 2,2,
le_featurewise_enable_tiling_offset 1,1,
le_featurewise_max_q_thresh 0.5
le_featurewise_enable_action_fallback 1
le_featurewise_feature_weights 1,1,
le_featurewise_enable_dynamic_weight 0
le_featurewise_weight_gradient 0.001
le_featurewise_disable_adjust_weight_all_features_align 1
le_featurewise_selective_update 0
le_featurewise_pooling_type 2
le_featurewise_enable_dyn_action_fallback 1
le_featurewise_bw_acc_check_level 1
le_featurewise_acc_thresh 2
le_featurewise_enable_trace 0
le_featurewise_trace_feature_type 0
le_featurewise_trace_feature 
le_featurewise_trace_interval 0
le_featurewise_trace_record_count 0
le_featurewise_trace_file_name 
le_featurewise_enable_score_plot 0
le_featurewise_plot_actions 
le_featurewise_plot_file_name 


Heartbeat CPU  0 instructions:    1000001 cycles:     605813 heartbeat IPC: 1.65068 cumulative IPC: 1.65068 (Simulation time: 0 hr 0 min 4 sec) 
Heartbeat CPU  0 instructions:    2000002 cycles:    1107098 heartbeat IPC: 1.99488 cumulative IPC: 1.80653 (Simulation time: 0 hr 0 min 9 sec) 
Heartbeat CPU  0 instructions:    3000002 cycles:    1673214 heartbeat IPC: 1.76642 cumulative IPC: 1.79296 (Simulation time: 0 hr 0 min 13 sec) 
Heartbeat CPU  0 instructions:    4000000 cycles:    2236695 heartbeat IPC: 1.77468 cumulative IPC: 1.78835 (Simulation time: 0 hr 0 min 17 sec) 
Heartbeat CPU  0 instructions:    5000001 cycles:    2688726 heartbeat IPC: 2.21224 cumulative IPC: 1.85962 (Simulation time: 0 hr 0 min 22 sec) 
Heartbeat CPU  0 instructions:    6000000 cycles:    3232880 heartbeat IPC: 1.83771 cumulative IPC: 1.85593 (Simulation time: 0 hr 0 min 26 sec) 
Heartbeat CPU  0 instructions:    7000000 cycles:    3738275 heartbeat IPC: 1.97865 cumulative IPC: 1.87252 (Simulation time: 0 hr 0 min 31 sec) 
Heartbeat CPU  0 instructions:    8000000 cycles:    4248068 heartbeat IPC: 1.96158 cumulative IPC: 1.88321 (Simulation time: 0 hr 0 min 36 sec) 
Heartbeat CPU  0 instructions:    9000001 cycles:    4783431 heartbeat IPC: 1.86789 cumulative IPC: 1.88149 (Simulation time: 0 hr 0 min 40 sec) 
Heartbeat CPU  0 instructions:   10000001 cycles:    5300589 heartbeat IPC: 1.93365 cumulative IPC: 1.88658 (Simulation time: 0 hr 0 min 45 sec) 
Heartbeat CPU  0 instructions:   11000000 cycles:    5803634 heartbeat IPC: 1.98789 cumulative IPC: 1.89536 (Simulation time: 0 hr 0 min 50 sec) 
Heartbeat CPU  0 instructions:   12000000 cycles:    6313081 heartbeat IPC: 1.96291 cumulative IPC: 1.90082 (Simulation time: 0 hr 0 min 55 sec) 
Heartbeat CPU  0 instructions:   13000000 cycles:    6811352 heartbeat IPC: 2.00694 cumulative IPC: 1.90858 (Simulation time: 0 hr 0 min 59 sec) 
Heartbeat CPU  0 instructions:   14000002 cycles:    7350656 heartbeat IPC: 1.85425 cumulative IPC: 1.90459 (Simulation time: 0 hr 1 min 4 sec) 
Heartbeat CPU  0 instructions:   15000002 cycles:    7803869 heartbeat IPC: 2.20647 cumulative IPC: 1.92212 (Simulation time: 0 hr 1 min 9 sec) 
Heartbeat CPU  0 instructions:   16000000 cycles:    8356912 heartbeat IPC: 1.80817 cumulative IPC: 1.91458 (Simulation time: 0 hr 1 min 13 sec) 
Heartbeat CPU  0 instructions:   17000000 cycles:    8891626 heartbeat IPC: 1.87016 cumulative IPC: 1.91191 (Simulation time: 0 hr 1 min 18 sec) 
Heartbeat CPU  0 instructions:   18000000 cycles:    9379544 heartbeat IPC: 2.04952 cumulative IPC: 1.91907 (Simulation time: 0 hr 1 min 23 sec) 
Heartbeat CPU  0 instructions:   19000003 cycles:    9917921 heartbeat IPC: 1.85744 cumulative IPC: 1.91572 (Simulation time: 0 hr 1 min 27 sec) 
Heartbeat CPU  0 instructions:   20000000 cycles:   10434230 heartbeat IPC: 1.93682 cumulative IPC: 1.91677 (Simulation time: 0 hr 1 min 32 sec) 
Heartbeat CPU  0 instructions:   21000000 cycles:   10938835 heartbeat IPC: 1.98175 cumulative IPC: 1.91977 (Simulation time: 0 hr 1 min 37 sec) 
Heartbeat CPU  0 instructions:   22000000 cycles:   11506642 heartbeat IPC: 1.76116 cumulative IPC: 1.91194 (Simulation time: 0 hr 1 min 41 sec) 
Heartbeat CPU  0 instructions:   23000001 cycles:   11959448 heartbeat IPC: 2.20845 cumulative IPC: 1.92317 (Simulation time: 0 hr 1 min 46 sec) 
Heartbeat CPU  0 instructions:   24000000 cycles:   12567421 heartbeat IPC: 1.64481 cumulative IPC: 1.90970 (Simulation time: 0 hr 1 min 50 sec) 
Heartbeat CPU  0 instructions:   25000000 cycles:   13018558 heartbeat IPC: 2.21662 cumulative IPC: 1.92034 (Simulation time: 0 hr 1 min 55 sec) 
Heartbeat CPU  0 instructions:   26000003 cycles:   13620370 heartbeat IPC: 1.66165 cumulative IPC: 1.90891 (Simulation time: 0 hr 1 min 59 sec) 
Heartbeat CPU  0 instructions:   27000000 cycles:   14088377 heartbeat IPC: 2.13671 cumulative IPC: 1.91647 (Simulation time: 0 hr 2 min 4 sec) 
Heartbeat CPU  0 instructions:   28000000 cycles:   14640961 heartbeat IPC: 1.80968 cumulative IPC: 1.91244 (Simulation time: 0 hr 2 min 9 sec) 
Heartbeat CPU  0 instructions:   29000003 cycles:   15121451 heartbeat IPC: 2.08121 cumulative IPC: 1.91781 (Simulation time: 0 hr 2 min 14 sec) 
Heartbeat CPU  0 instructions:   30000000 cycles:   15657214 heartbeat IPC: 1.86649 cumulative IPC: 1.91605 (Simulation time: 0 hr 2 min 18 sec) 
Heartbeat CPU  0 instructions:   31000000 cycles:   16220440 heartbeat IPC: 1.77549 cumulative IPC: 1.91117 (Simulation time: 0 hr 2 min 23 sec) 
Heartbeat CPU  0 instructions:   32000000 cycles:   16725444 heartbeat IPC: 1.98018 cumulative IPC: 1.91325 (Simulation time: 0 hr 2 min 28 sec) 
Heartbeat CPU  0 instructions:   33000001 cycles:   17256400 heartbeat IPC: 1.88340 cumulative IPC: 1.91233 (Simulation time: 0 hr 2 min 32 sec) 
Heartbeat CPU  0 instructions:   34000000 cycles:   17707924 heartbeat IPC: 2.21472 cumulative IPC: 1.92004 (Simulation time: 0 hr 2 min 37 sec) 
Heartbeat CPU  0 instructions:   35000000 cycles:   18269596 heartbeat IPC: 1.78040 cumulative IPC: 1.91575 (Simulation time: 0 hr 2 min 41 sec) 
Heartbeat CPU  0 instructions:   36000000 cycles:   18745136 heartbeat IPC: 2.10287 cumulative IPC: 1.92050 (Simulation time: 0 hr 2 min 46 sec) 
Heartbeat CPU  0 instructions:   37000000 cycles:   19325625 heartbeat IPC: 1.72269 cumulative IPC: 1.91456 (Simulation time: 0 hr 2 min 51 sec) 
Heartbeat CPU  0 instructions:   38000000 cycles:   19823770 heartbeat IPC: 2.00745 cumulative IPC: 1.91689 (Simulation time: 0 hr 2 min 55 sec) 
Heartbeat CPU  0 instructions:   39000002 cycles:   20378262 heartbeat IPC: 1.80346 cumulative IPC: 1.91380 (Simulation time: 0 hr 3 min 0 sec) 
Heartbeat CPU  0 instructions:   40000000 cycles:   20930448 heartbeat IPC: 1.81098 cumulative IPC: 1.91109 (Simulation time: 0 hr 3 min 4 sec) 

Warmup complete CPU  0 instructions:   40000002 cycles:   20930449 (Simulation time: 0 hr 3 min 4 sec) 

Heartbeat CPU  0 instructions:   41000002 cycles:   24591577 heartbeat IPC: 0.27314 cumulative IPC: 0.27314 (Simulation time: 0 hr 3 min 11 sec) 
Heartbeat CPU  0 instructions:   42000000 cycles:   27177720 heartbeat IPC: 0.38668 cumulative IPC: 0.32014 (Simulation time: 0 hr 3 min 17 sec) 
Heartbeat CPU  0 instructions:   43000002 cycles:   30834721 heartbeat IPC: 0.27345 cumulative IPC: 0.30290 (Simulation time: 0 hr 3 min 25 sec) 
Heartbeat CPU  0 instructions:   44000000 cycles:   33824974 heartbeat IPC: 0.33442 cumulative IPC: 0.31021 (Simulation time: 0 hr 3 min 31 sec) 
Heartbeat CPU  0 instructions:   45000002 cycles:   37386178 heartbeat IPC: 0.28080 cumulative IPC: 0.30385 (Simulation time: 0 hr 3 min 38 sec) 
Heartbeat CPU  0 instructions:   46000001 cycles:   40642567 heartbeat IPC: 0.30709 cumulative IPC: 0.30438 (Simulation time: 0 hr 3 min 45 sec) 
Heartbeat CPU  0 instructions:   47000002 cycles:   43607145 heartbeat IPC: 0.33732 cumulative IPC: 0.30869 (Simulation time: 0 hr 3 min 52 sec) 
Heartbeat CPU  0 instructions:   48000000 cycles:   47215483 heartbeat IPC: 0.27714 cumulative IPC: 0.30436 (Simulation time: 0 hr 3 min 59 sec) 
Heartbeat CPU  0 instructions:   49000002 cycles:   50279914 heartbeat IPC: 0.32633 cumulative IPC: 0.30665 (Simulation time: 0 hr 4 min 6 sec) 
Heartbeat CPU  0 instructions:   50000001 cycles:   53849740 heartbeat IPC: 0.28013 cumulative IPC: 0.30377 (Simulation time: 0 hr 4 min 13 sec) 
Heartbeat CPU  0 instructions:   51000000 cycles:   55793597 heartbeat IPC: 0.51444 cumulative IPC: 0.31552 (Simulation time: 0 hr 4 min 18 sec) 
Heartbeat CPU  0 instructions:   52000000 cycles:   59462528 heartbeat IPC: 0.27256 cumulative IPC: 0.31143 (Simulation time: 0 hr 4 min 26 sec) 
Heartbeat CPU  0 instructions:   53000001 cycles:   62460961 heartbeat IPC: 0.33351 cumulative IPC: 0.31302 (Simulation time: 0 hr 4 min 33 sec) 
Heartbeat CPU  0 instructions:   54000001 cycles:   65862801 heartbeat IPC: 0.29396 cumulative IPC: 0.31158 (Simulation time: 0 hr 4 min 40 sec) 
Heartbeat CPU  0 instructions:   55000002 cycles:   69450086 heartbeat IPC: 0.27876 cumulative IPC: 0.30915 (Simulation time: 0 hr 4 min 47 sec) 
Heartbeat CPU  0 instructions:   56000000 cycles:   72048816 heartbeat IPC: 0.38480 cumulative IPC: 0.31300 (Simulation time: 0 hr 4 min 54 sec) 
Heartbeat CPU  0 instructions:   57000002 cycles:   75677863 heartbeat IPC: 0.27555 cumulative IPC: 0.31052 (Simulation time: 0 hr 5 min 1 sec) 
Heartbeat CPU  0 instructions:   58000000 cycles:   78253227 heartbeat IPC: 0.38829 cumulative IPC: 0.31401 (Simulation time: 0 hr 5 min 7 sec) 
Heartbeat CPU  0 instructions:   59000000 cycles:   80616675 heartbeat IPC: 0.42311 cumulative IPC: 0.31833 (Simulation time: 0 hr 5 min 13 sec) 
Heartbeat CPU  0 instructions:   60000000 cycles:   84268544 heartbeat IPC: 0.27383 cumulative IPC: 0.31577 (Simulation time: 0 hr 5 min 21 sec) 
Heartbeat CPU  0 instructions:   61000002 cycles:   87315390 heartbeat IPC: 0.32821 cumulative IPC: 0.31634 (Simulation time: 0 hr 5 min 28 sec) 
Heartbeat CPU  0 instructions:   62000002 cycles:   90730938 heartbeat IPC: 0.29278 cumulative IPC: 0.31518 (Simulation time: 0 hr 5 min 35 sec) 
Heartbeat CPU  0 instructions:   63000003 cycles:   93297565 heartbeat IPC: 0.38962 cumulative IPC: 0.31782 (Simulation time: 0 hr 5 min 41 sec) 
Heartbeat CPU  0 instructions:   64000000 cycles:   96826157 heartbeat IPC: 0.28340 cumulative IPC: 0.31622 (Simulation time: 0 hr 5 min 48 sec) 
Heartbeat CPU  0 instructions:   65000000 cycles:   99714455 heartbeat IPC: 0.34622 cumulative IPC: 0.31732 (Simulation time: 0 hr 5 min 55 sec) 
Heartbeat CPU  0 instructions:   66000000 cycles:  103224403 heartbeat IPC: 0.28490 cumulative IPC: 0.31594 (Simulation time: 0 hr 6 min 2 sec) 
Heartbeat CPU  0 instructions:   67000001 cycles:  104883488 heartbeat IPC: 0.60274 cumulative IPC: 0.32161 (Simulation time: 0 hr 6 min 7 sec) 
Heartbeat CPU  0 instructions:   68000000 cycles:  108384419 heartbeat IPC: 0.28564 cumulative IPC: 0.32017 (Simulation time: 0 hr 6 min 14 sec) 
Heartbeat CPU  0 instructions:   69000000 cycles:  111098607 heartbeat IPC: 0.36843 cumulative IPC: 0.32162 (Simulation time: 0 hr 6 min 21 sec) 
Heartbeat CPU  0 instructions:   70000000 cycles:  114771250 heartbeat IPC: 0.27228 cumulative IPC: 0.31969 (Simulation time: 0 hr 6 min 28 sec) 
Heartbeat CPU  0 instructions:   71000001 cycles:  117191189 heartbeat IPC: 0.41323 cumulative IPC: 0.32204 (Simulation time: 0 hr 6 min 34 sec) 
Heartbeat CPU  0 instructions:   72000000 cycles:  119889503 heartbeat IPC: 0.37060 cumulative IPC: 0.32337 (Simulation time: 0 hr 6 min 41 sec) 
Heartbeat CPU  0 instructions:   73000002 cycles:  123245610 heartbeat IPC: 0.29796 cumulative IPC: 0.32253 (Simulation time: 0 hr 6 min 48 sec) 
Heartbeat CPU  0 instructions:   74000002 cycles:  125471664 heartbeat IPC: 0.44923 cumulative IPC: 0.32523 (Simulation time: 0 hr 6 min 54 sec) 
Heartbeat CPU  0 instructions:   75000001 cycles:  129122514 heartbeat IPC: 0.27391 cumulative IPC: 0.32350 (Simulation time: 0 hr 7 min 2 sec) 
Heartbeat CPU  0 instructions:   76000000 cycles:  131961073 heartbeat IPC: 0.35229 cumulative IPC: 0.32423 (Simulation time: 0 hr 7 min 8 sec) 
Heartbeat CPU  0 instructions:   77000001 cycles:  135561267 heartbeat IPC: 0.27776 cumulative IPC: 0.32278 (Simulation time: 0 hr 7 min 15 sec) 
Heartbeat CPU  0 instructions:   78000000 cycles:  138888099 heartbeat IPC: 0.30059 cumulative IPC: 0.32215 (Simulation time: 0 hr 7 min 23 sec) 
Heartbeat CPU  0 instructions:   79000002 cycles:  141977930 heartbeat IPC: 0.32364 cumulative IPC: 0.32219 (Simulation time: 0 hr 7 min 30 sec) 
Heartbeat CPU  0 instructions:   80000000 cycles:  145636870 heartbeat IPC: 0.27330 cumulative IPC: 0.32075 (Simulation time: 0 hr 7 min 37 sec) 
Heartbeat CPU  0 instructions:   81000001 cycles:  147591305 heartbeat IPC: 0.51166 cumulative IPC: 0.32370 (Simulation time: 0 hr 7 min 43 sec) 
Heartbeat CPU  0 instructions:   82000000 cycles:  151306834 heartbeat IPC: 0.26914 cumulative IPC: 0.32214 (Simulation time: 0 hr 7 min 50 sec) 
Heartbeat CPU  0 instructions:   83000001 cycles:  153701184 heartbeat IPC: 0.41765 cumulative IPC: 0.32387 (Simulation time: 0 hr 7 min 57 sec) 
Heartbeat CPU  0 instructions:   84000000 cycles:  157151451 heartbeat IPC: 0.28983 cumulative IPC: 0.32300 (Simulation time: 0 hr 8 min 4 sec) 
Heartbeat CPU  0 instructions:   85000000 cycles:  159910235 heartbeat IPC: 0.36248 cumulative IPC: 0.32379 (Simulation time: 0 hr 8 min 11 sec) 
Heartbeat CPU  0 instructions:   86000001 cycles:  163561378 heartbeat IPC: 0.27389 cumulative IPC: 0.32251 (Simulation time: 0 hr 8 min 18 sec) 
Heartbeat CPU  0 instructions:   87000001 cycles:  166138625 heartbeat IPC: 0.38801 cumulative IPC: 0.32367 (Simulation time: 0 hr 8 min 24 sec) 
Heartbeat CPU  0 instructions:   88000000 cycles:  169800042 heartbeat IPC: 0.27312 cumulative IPC: 0.32243 (Simulation time: 0 hr 8 min 32 sec) 
Heartbeat CPU  0 instructions:   89000003 cycles:  172373456 heartbeat IPC: 0.38859 cumulative IPC: 0.32355 (Simulation time: 0 hr 8 min 38 sec) 
Heartbeat CPU  0 instructions:   90000002 cycles:  174162172 heartbeat IPC: 0.55906 cumulative IPC: 0.32630 (Simulation time: 0 hr 8 min 43 sec) 
Heartbeat CPU  0 instructions:   91000002 cycles:  177300563 heartbeat IPC: 0.31863 cumulative IPC: 0.32615 (Simulation time: 0 hr 8 min 50 sec) 
Heartbeat CPU  0 instructions:   92000000 cycles:  180319634 heartbeat IPC: 0.33123 cumulative IPC: 0.32625 (Simulation time: 0 hr 8 min 57 sec) 
Heartbeat CPU  0 instructions:   93000001 cycles:  183855131 heartbeat IPC: 0.28285 cumulative IPC: 0.32530 (Simulation time: 0 hr 9 min 4 sec) 
Heartbeat CPU  0 instructions:   94000001 cycles:  186727572 heartbeat IPC: 0.34814 cumulative IPC: 0.32570 (Simulation time: 0 hr 9 min 11 sec) 
Heartbeat CPU  0 instructions:   95000000 cycles:  190396433 heartbeat IPC: 0.27256 cumulative IPC: 0.32455 (Simulation time: 0 hr 9 min 18 sec) 
Heartbeat CPU  0 instructions:   96000000 cycles:  192522137 heartbeat IPC: 0.47043 cumulative IPC: 0.32636 (Simulation time: 0 hr 9 min 23 sec) 
Heartbeat CPU  0 instructions:   97000000 cycles:  194651213 heartbeat IPC: 0.46969 cumulative IPC: 0.32811 (Simulation time: 0 hr 9 min 29 sec) 
Heartbeat CPU  0 instructions:   98000001 cycles:  198319948 heartbeat IPC: 0.27257 cumulative IPC: 0.32696 (Simulation time: 0 hr 9 min 37 sec) 
Heartbeat CPU  0 instructions:   99000002 cycles:  201222554 heartbeat IPC: 0.34452 cumulative IPC: 0.32725 (Simulation time: 0 hr 9 min 43 sec) 
Heartbeat CPU  0 instructions:  100000000 cycles:  204843272 heartbeat IPC: 0.27619 cumulative IPC: 0.32624 (Simulation time: 0 hr 9 min 51 sec) 
Heartbeat CPU  0 instructions:  101000000 cycles:  206701347 heartbeat IPC: 0.53819 cumulative IPC: 0.32836 (Simulation time: 0 hr 9 min 57 sec) 
Heartbeat CPU  0 instructions:  102000000 cycles:  209776212 heartbeat IPC: 0.32522 cumulative IPC: 0.32831 (Simulation time: 0 hr 10 min 3 sec) 
Heartbeat CPU  0 instructions:  103000001 cycles:  213026114 heartbeat IPC: 0.30770 cumulative IPC: 0.32796 (Simulation time: 0 hr 10 min 10 sec) 
Heartbeat CPU  0 instructions:  104000000 cycles:  215014730 heartbeat IPC: 0.50286 cumulative IPC: 0.32975 (Simulation time: 0 hr 10 min 16 sec) 
Heartbeat CPU  0 instructions:  105000001 cycles:  218681719 heartbeat IPC: 0.27270 cumulative IPC: 0.32870 (Simulation time: 0 hr 10 min 23 sec) 
Heartbeat CPU  0 instructions:  106000003 cycles:  221254765 heartbeat IPC: 0.38865 cumulative IPC: 0.32947 (Simulation time: 0 hr 10 min 30 sec) 
Heartbeat CPU  0 instructions:  107000000 cycles:  224307081 heartbeat IPC: 0.32762 cumulative IPC: 0.32944 (Simulation time: 0 hr 10 min 37 sec) 
Heartbeat CPU  0 instructions:  108000000 cycles:  227366544 heartbeat IPC: 0.32685 cumulative IPC: 0.32940 (Simulation time: 0 hr 10 min 43 sec) 
Heartbeat CPU  0 instructions:  109000000 cycles:  229495239 heartbeat IPC: 0.46977 cumulative IPC: 0.33083 (Simulation time: 0 hr 10 min 49 sec) 
Heartbeat CPU  0 instructions:  110000000 cycles:  232471471 heartbeat IPC: 0.33600 cumulative IPC: 0.33091 (Simulation time: 0 hr 10 min 56 sec) 
Heartbeat CPU  0 instructions:  111000001 cycles:  236108617 heartbeat IPC: 0.27494 cumulative IPC: 0.32996 (Simulation time: 0 hr 11 min 3 sec) 
Heartbeat CPU  0 instructions:  112000000 cycles:  237958928 heartbeat IPC: 0.54045 cumulative IPC: 0.33175 (Simulation time: 0 hr 11 min 9 sec) 
Heartbeat CPU  0 instructions:  113000001 cycles:  239622989 heartbeat IPC: 0.60094 cumulative IPC: 0.33380 (Simulation time: 0 hr 11 min 15 sec) 
Heartbeat CPU  0 instructions:  114000000 cycles:  243229557 heartbeat IPC: 0.27727 cumulative IPC: 0.33288 (Simulation time: 0 hr 11 min 22 sec) 
Heartbeat CPU  0 instructions:  115000003 cycles:  245584090 heartbeat IPC: 0.42471 cumulative IPC: 0.33385 (Simulation time: 0 hr 11 min 28 sec) 
Heartbeat CPU  0 instructions:  116000000 cycles:  247869988 heartbeat IPC: 0.43746 cumulative IPC: 0.33489 (Simulation time: 0 hr 11 min 34 sec) 
Heartbeat CPU  0 instructions:  117000002 cycles:  251714953 heartbeat IPC: 0.26008 cumulative IPC: 0.33364 (Simulation time: 0 hr 11 min 42 sec) 
Heartbeat CPU  0 instructions:  118000000 cycles:  254724060 heartbeat IPC: 0.33232 cumulative IPC: 0.33363 (Simulation time: 0 hr 11 min 49 sec) 
Heartbeat CPU  0 instructions:  119000000 cycles:  258183252 heartbeat IPC: 0.28908 cumulative IPC: 0.33298 (Simulation time: 0 hr 11 min 56 sec) 
Heartbeat CPU  0 instructions:  120000000 cycles:  260139754 heartbeat IPC: 0.51112 cumulative IPC: 0.33444 (Simulation time: 0 hr 12 min 1 sec) 
Heartbeat CPU  0 instructions:  121000000 cycles:  263946419 heartbeat IPC: 0.26270 cumulative IPC: 0.33331 (Simulation time: 0 hr 12 min 9 sec) 
Heartbeat CPU  0 instructions:  122000001 cycles:  266370580 heartbeat IPC: 0.41251 cumulative IPC: 0.33409 (Simulation time: 0 hr 12 min 15 sec) 
Heartbeat CPU  0 instructions:  123000001 cycles:  269964663 heartbeat IPC: 0.27824 cumulative IPC: 0.33329 (Simulation time: 0 hr 12 min 23 sec) 
Heartbeat CPU  0 instructions:  124000000 cycles:  273429689 heartbeat IPC: 0.28860 cumulative IPC: 0.33267 (Simulation time: 0 hr 12 min 30 sec) 
Heartbeat CPU  0 instructions:  125000002 cycles:  276979338 heartbeat IPC: 0.28172 cumulative IPC: 0.33197 (Simulation time: 0 hr 12 min 37 sec) 
Heartbeat CPU  0 instructions:  126000002 cycles:  279998539 heartbeat IPC: 0.33121 cumulative IPC: 0.33196 (Simulation time: 0 hr 12 min 44 sec) 
Heartbeat CPU  0 instructions:  127000003 cycles:  283177480 heartbeat IPC: 0.31457 cumulative IPC: 0.33175 (Simulation time: 0 hr 12 min 51 sec) 
Heartbeat CPU  0 instructions:  128000000 cycles:  286482811 heartbeat IPC: 0.30254 cumulative IPC: 0.33138 (Simulation time: 0 hr 12 min 58 sec) 
Heartbeat CPU  0 instructions:  129000000 cycles:  289932340 heartbeat IPC: 0.28989 cumulative IPC: 0.33085 (Simulation time: 0 hr 13 min 5 sec) 
Heartbeat CPU  0 instructions:  130000003 cycles:  293767049 heartbeat IPC: 0.26078 cumulative IPC: 0.32987 (Simulation time: 0 hr 13 min 13 sec) 
Heartbeat CPU  0 instructions:  131000000 cycles:  295783862 heartbeat IPC: 0.49583 cumulative IPC: 0.33109 (Simulation time: 0 hr 13 min 19 sec) 
Heartbeat CPU  0 instructions:  132000000 cycles:  299623906 heartbeat IPC: 0.26041 cumulative IPC: 0.33011 (Simulation time: 0 hr 13 min 26 sec) 
Heartbeat CPU  0 instructions:  133000000 cycles:  302195617 heartbeat IPC: 0.38885 cumulative IPC: 0.33065 (Simulation time: 0 hr 13 min 33 sec) 
Heartbeat CPU  0 instructions:  134000000 cycles:  306036357 heartbeat IPC: 0.26037 cumulative IPC: 0.32970 (Simulation time: 0 hr 13 min 41 sec) 
Heartbeat CPU  0 instructions:  135000002 cycles:  308822948 heartbeat IPC: 0.35886 cumulative IPC: 0.32998 (Simulation time: 0 hr 13 min 47 sec) 
Heartbeat CPU  0 instructions:  136000000 cycles:  312555160 heartbeat IPC: 0.26794 cumulative IPC: 0.32919 (Simulation time: 0 hr 13 min 55 sec) 
Heartbeat CPU  0 instructions:  137000000 cycles:  315396645 heartbeat IPC: 0.35193 cumulative IPC: 0.32941 (Simulation time: 0 hr 14 min 1 sec) 
Heartbeat CPU  0 instructions:  138000001 cycles:  318893352 heartbeat IPC: 0.28598 cumulative IPC: 0.32890 (Simulation time: 0 hr 14 min 8 sec) 
Heartbeat CPU  0 instructions:  139000001 cycles:  321719486 heartbeat IPC: 0.35384 cumulative IPC: 0.32913 (Simulation time: 0 hr 14 min 15 sec) 
Heartbeat CPU  0 instructions:  140000000 cycles:  325346723 heartbeat IPC: 0.27569 cumulative IPC: 0.32850 (Simulation time: 0 hr 14 min 22 sec) 
Finished CPU 0 instructions: 100000002 cycles: 304416282 cumulative IPC: 0.32850 (Simulation time: 0 hr 14 min 22 sec) 

ChampSim completed all CPUs

[ROI Statistics]
Core_0_instructions 100000002
Core_0_cycles 304416282
Core_0_IPC 0.32850

Core_0_branch_prediction_accuracy 99.25595
Core_0_branch_MPKI 1.74952
Core_0_average_ROB_occupancy_at_mispredict 116.88685

Core_0_L1D_total_access 22364046
Core_0_L1D_total_hit 19541760
Core_0_L1D_total_miss 2822286
Core_0_L1D_loads 17620141
Core_0_L1D_load_hit 14858340
Core_0_L1D_load_miss 2761801
Core_0_L1D_RFOs 4743905
Core_0_L1D_RFO_hit 4683420
Core_0_L1D_RFO_miss 60485
Core_0_L1D_prefetches 0
Core_0_L1D_prefetch_hit 0
Core_0_L1D_prefetch_miss 0
Core_0_L1D_writebacks 0
Core_0_L1D_writeback_hit 0
Core_0_L1D_writeback_miss 0
Core_0_L1D_prefetch_requested 0
Core_0_L1D_prefetch_dropped 0
Core_0_L1D_prefetch_issued 0
Core_0_L1D_prefetch_filled 0
Core_0_L1D_prefetch_useful 0
Core_0_L1D_prefetch_useless 0
Core_0_L1D_prefetch_late 0
Core_0_L1D_average_miss_latency 94.48559

Core_0_L1D_rq_access 29363036
Core_0_L1D_rq_forward 0
Core_0_L1D_rq_merged 10961365
Core_0_L1D_rq_to_cache 18401671
Core_0_L1D_rq_full 0

Core_0_L1D_wq_access 4941795
Core_0_L1D_wq_forward 0
Core_0_L1D_wq_merged 28824
Core_0_L1D_wq_to_cache 4912971
Core_0_L1D_wq_full 15262

Core_0_L1D_pq_access 0
Core_0_L1D_pq_forward 0
Core_0_L1D_pq_merged 0
Core_0_L1D_pq_to_cache 0
Core_0_L1D_pq_full 0

Core_0_L1D_acc_epochs 268908
Core_0_L1D_acc_level_0 268908
Core_0_L1D_acc_level_1 0
Core_0_L1D_acc_level_2 0
Core_0_L1D_acc_level_3 0
Core_0_L1D_acc_level_4 0
Core_0_L1D_acc_level_5 0
Core_0_L1D_acc_level_6 0
Core_0_L1D_acc_level_7 0
Core_0_L1D_acc_level_8 0
Core_0_L1D_acc_level_9 0

Core_0_L1I_total_access 32017935
Core_0_L1I_total_hit 31667158
Core_0_L1I_total_miss 350777
Core_0_L1I_loads 32017935
Core_0_L1I_load_hit 31667158
Core_0_L1I_load_miss 350777
Core_0_L1I_RFOs 0
Core_0_L1I_RFO_hit 0
Core_0_L1I_RFO_miss 0
Core_0_L1I_prefetches 0
Core_0_L1I_prefetch_hit 0
Core_0_L1I_prefetch_miss 0
Core_0_L1I_writebacks 0
Core_0_L1I_writeback_hit 0
Core_0_L1I_writeback_miss 0
Core_0_L1I_prefetch_requested 0
Core_0_L1I_prefetch_dropped 0
Core_0_L1I_prefetch_issued 0
Core_0_L1I_prefetch_filled 0
Core_0_L1I_prefetch_useful 0
Core_0_L1I_prefetch_useless 0
Core_0_L1I_prefetch_late 0
Core_0_L1I_average_miss_latency 20.16886

Core_0_L1I_rq_access 100000124
Core_0_L1I_rq_forward 0
Core_0_L1I_rq_merged 67761376
Core_0_L1I_rq_to_cache 32238748
Core_0_L1I_rq_full 0

Core_0_L1I_wq_access 0
Core_0_L1I_wq_forward 0
Core_0_L1I_wq_merged 0
Core_0_L1I_wq_to_cache 0
Core_0_L1I_wq_full 0

Core_0_L1I_pq_access 0
Core_0_L1I_pq_forward 0
Core_0_L1I_pq_merged 0
Core_0_L1I_pq_to_cache 0
Core_0_L1I_pq_full 0

Core_0_L1I_acc_epochs 268908
Core_0_L1I_acc_level_0 268908
Core_0_L1I_acc_level_1 0
Core_0_L1I_acc_level_2 0
Core_0_L1I_acc_level_3 0
Core_0_L1I_acc_level_4 0
Core_0_L1I_acc_level_5 0
Core_0_L1I_acc_level_6 0
Core_0_L1I_acc_level_7 0
Core_0_L1I_acc_level_8 0
Core_0_L1I_acc_level_9 0

Core_0_L2C_total_access 5951868
Core_0_L2C_total_hit 2068877
Core_0_L2C_total_miss 3882991
Core_0_L2C_loads 3112561
Core_0_L2C_load_hit 999404
Core_0_L2C_load_miss 2113157
Core_0_L2C_RFOs 60476
Core_0_L2C_RFO_hit 30098
Core_0_L2C_RFO_miss 30378
Core_0_L2C_prefetches 2653123
Core_0_L2C_prefetch_hit 915946
Core_0_L2C_prefetch_miss 1737177
Core_0_L2C_writebacks 125708
Core_0_L2C_writeback_hit 123429
Core_0_L2C_writeback_miss 2279
Core_0_L2C_prefetch_requested 4456492
Core_0_L2C_prefetch_dropped 119
Core_0_L2C_prefetch_issued 4456373
Core_0_L2C_prefetch_filled 2519981
Core_0_L2C_prefetch_useful 876372
Core_0_L2C_prefetch_useless 1642291
Core_0_L2C_prefetch_late 219804
Core_0_L2C_average_miss_latency 98.66698

Core_0_L2C_rq_access 3173063
Core_0_L2C_rq_forward 0
Core_0_L2C_rq_merged 0
Core_0_L2C_rq_to_cache 3173037
Core_0_L2C_rq_full 0

Core_0_L2C_wq_access 125708
Core_0_L2C_wq_forward 26
Core_0_L2C_wq_merged 0
Core_0_L2C_wq_to_cache 125708
Core_0_L2C_wq_full 0

Core_0_L2C_pq_access 4456373
Core_0_L2C_pq_forward 0
Core_0_L2C_pq_merged 44584
Core_0_L2C_pq_to_cache 4411789
Core_0_L2C_pq_full 0

Core_0_L2C_acc_epochs 268908
Core_0_L2C_acc_level_0 38618
Core_0_L2C_acc_level_1 34931
Core_0_L2C_acc_level_2 69817
Core_0_L2C_acc_level_3 64526
Core_0_L2C_acc_level_4 30085
Core_0_L2C_acc_level_5 15534
Core_0_L2C_acc_level_6 7629
Core_0_L2C_acc_level_7 3576
Core_0_L2C_acc_level_8 1509
Core_0_L2C_acc_level_9 2683

Core_0_LLC_total_access 3938524
Core_0_LLC_total_hit 1677058
Core_0_LLC_total_miss 2261466
Core_0_LLC_loads 1912501
Core_0_LLC_load_hit 830873
Core_0_LLC_load_miss 1081628
Core_0_LLC_RFOs 30141
Core_0_LLC_RFO_hit 15335
Core_0_LLC_RFO_miss 14806
Core_0_LLC_prefetches 1938069
Core_0_LLC_prefetch_hit 777166
Core_0_LLC_prefetch_miss 1160903
Core_0_LLC_writebacks 57813
Core_0_LLC_writeback_hit 53684
Core_0_LLC_writeback_miss 4129
Core_0_LLC_prefetch_requested 0
Core_0_LLC_prefetch_dropped 0
Core_0_LLC_prefetch_issued 0
Core_0_LLC_prefetch_filled 1623485
Core_0_LLC_prefetch_useful 5144
Core_0_LLC_prefetch_useless 1604891
Core_0_LLC_prefetch_late 0
Core_0_LLC_average_miss_latency 118.18681

Core_0_LLC_rq_access 1942642
Core_0_LLC_rq_forward 0
Core_0_LLC_rq_merged 0
Core_0_LLC_rq_to_cache 1942642
Core_0_LLC_rq_full 0

Core_0_LLC_wq_access 57813
Core_0_LLC_wq_forward 1
Core_0_LLC_wq_merged 0
Core_0_LLC_wq_to_cache 57813
Core_0_LLC_wq_full 0

Core_0_LLC_pq_access 2739785
Core_0_LLC_pq_forward 0
Core_0_LLC_pq_merged 0
Core_0_LLC_pq_to_cache 2739784
Core_0_LLC_pq_full 0

Core_0_LLC_acc_epochs 317722
Core_0_LLC_acc_level_0 314210
Core_0_LLC_acc_level_1 1623
Core_0_LLC_acc_level_2 949
Core_0_LLC_acc_level_3 169
Core_0_LLC_acc_level_4 51
Core_0_LLC_acc_level_5 549
Core_0_LLC_acc_level_6 46
Core_0_LLC_acc_level_7 31
Core_0_LLC_acc_level_8 10
Core_0_LLC_acc_level_9 84

Core_0_major_page_fault 0
Core_0_minor_page_fault 11159

scooby_st_lookup 4374955
scooby_st_hit 3403477
scooby_st_evict 971414
scooby_st_insert 971478
scooby_st_streaming 0

scooby_predict_called 4374955
scooby_predict_out_of_bounds 112819
scooby_predict_action_1 2569766
scooby_predict_issue_action_1 2132227
scooby_predict_hit_action_1 437539
scooby_predict_out_of_bounds_action_1 37037
scooby_predict_action_3 1122616
scooby_predict_issue_action_3 1011603
scooby_predict_hit_action_3 111013
scooby_predict_out_of_bounds_action_3 46820
scooby_predict_action_4 60135
scooby_predict_issue_action_4 47730
scooby_predict_hit_action_4 12405
scooby_predict_out_of_bounds_action_4 2093
scooby_predict_action_5 51354
scooby_predict_issue_action_5 46276
scooby_predict_hit_action_5 5078
scooby_predict_out_of_bounds_action_5 2618
scooby_predict_action_10 17888
scooby_predict_issue_action_10 16568
scooby_predict_hit_action_10 1320
scooby_predict_out_of_bounds_action_10 1873
scooby_predict_action_11 21086
scooby_predict_issue_action_11 18705
scooby_predict_hit_action_11 2381
scooby_predict_out_of_bounds_action_11 2730
scooby_predict_action_12 14885
scooby_predict_issue_action_12 13523
scooby_predict_hit_action_12 1362
scooby_predict_out_of_bounds_action_12 1912
scooby_predict_action_22 4817
scooby_predict_issue_action_22 4566
scooby_predict_hit_action_22 251
scooby_predict_out_of_bounds_action_22 1873
scooby_predict_action_23 3408
scooby_predict_issue_action_23 3126
scooby_predict_hit_action_23 282
scooby_predict_out_of_bounds_action_23 1472
scooby_predict_action_30 5288
scooby_predict_issue_action_30 4977
scooby_predict_hit_action_30 311
scooby_predict_out_of_bounds_action_30 2737
scooby_predict_action_32 5405
scooby_predict_issue_action_32 4719
scooby_predict_hit_action_32 686
scooby_predict_out_of_bounds_action_32 2685
scooby_predict_action_-1 60004
scooby_predict_issue_action_-1 23144
scooby_predict_hit_action_-1 36860
scooby_predict_out_of_bounds_action_-1 311
scooby_predict_action_-3 194100
scooby_predict_issue_action_-3 184628
scooby_predict_hit_action_-3 9472
scooby_predict_out_of_bounds_action_-3 7768
scooby_predict_action_-6 11575
scooby_predict_issue_action_-6 9817
scooby_predict_hit_action_-6 1758
scooby_predict_out_of_bounds_action_-6 890
scooby_predict_action_0 119809
scooby_predict_issue_action_0 0
scooby_predict_hit_action_0 0
scooby_predict_out_of_bounds_action_0 0
scooby_predict_multi_deg_called 466313
scooby_predict_predicted 4456492
scooby_predict_multi_deg 934883
scooby_predict_multi_deg_2 454731
scooby_predict_multi_deg_3 180758
scooby_predict_multi_deg_4 175459
scooby_predict_multi_deg_5 62794
scooby_predict_multi_deg_6 61141
scooby_predict_multi_deg_7 0
scooby_predict_multi_deg_8 0
scooby_predict_multi_deg_9 0
scooby_predict_multi_deg_10 0
scooby_predict_multi_deg_11 0
scooby_predict_multi_deg_12 0
scooby_predict_multi_deg_13 0
scooby_predict_multi_deg_14 0
scooby_predict_multi_deg_15 0
scooby_predict_multi_deg_16 0

scooby_selected_deg_1 3055296
scooby_selected_deg_2 274278
scooby_selected_deg_3 0
scooby_selected_deg_4 121772
scooby_selected_deg_5 0
scooby_selected_deg_6 70263
scooby_selected_deg_7 0
scooby_selected_deg_8 0
scooby_selected_deg_9 0
scooby_selected_deg_10 0
scooby_selected_deg_11 0
scooby_selected_deg_12 0
scooby_selected_deg_13 0
scooby_selected_deg_14 0
scooby_selected_deg_15 0
scooby_selected_deg_16 0

scooby_state_59cdbf|0|0 7898,0,1,2,2,1,1,1,0,1,1,1,0,3,1,7913,
scooby_state_59cd9b|1|0 3,6745,1,2,0,0,0,1,3,1,2,1,0,4,2,6765,
scooby_state_59cd9b|0|0 1,6581,3,2,1,0,0,2,2,1,0,2,0,1,3,6599,
scooby_state_59cd9b|52|0 1,6567,0,2,0,2,1,1,3,0,1,2,2,1,0,6583,
scooby_state_59cdf2|1|1 351,6166,2,1,0,0,2,1,2,1,2,3,4,2,1,6538,
scooby_state_59cd9b|14|0 4,6472,1,1,0,1,0,0,2,1,1,1,0,2,1,6487,
scooby_state_59cd9b|2|0 0,6410,1,1,0,1,1,1,1,1,0,0,2,3,1,6423,
scooby_state_59cdf2|55|1 215,6109,6,14,0,3,1,1,1,2,3,3,2,3,4,6367,
scooby_state_59cdf2|36|1 364,5905,1,6,1,1,3,2,3,0,0,5,6,3,2,6302,
scooby_state_59cdf2|0|0 2598,3338,32,15,55,20,18,15,20,11,25,75,25,11,44,6302,
scooby_state_59cd9b|16|0 2,6252,0,0,0,0,0,2,1,0,3,2,1,1,0,6264,
scooby_state_59cd9b|37|0 1,6136,1,1,0,1,0,0,2,0,1,0,2,1,0,6146,
scooby_state_59cdf2|40|1 169,5884,1,8,1,2,2,1,1,2,2,2,7,0,4,6086,
scooby_state_59cdf2|12|1 225,5754,3,4,3,1,3,3,4,2,0,3,6,2,3,6016,
scooby_state_59cd9b|3|0 2,5955,3,1,1,3,0,0,1,2,0,0,0,0,1,5969,
scooby_state_59cdf2|50|1 264,5662,4,9,1,0,2,1,2,1,1,1,3,4,4,5959,
scooby_state_59cdf2|17|1 146,5787,2,5,2,0,1,0,0,0,3,5,3,1,3,5958,
scooby_state_59cdf2|8|1 231,5628,5,17,1,3,2,6,0,4,1,7,4,2,1,5912,
scooby_state_59cd9b|4|0 2,5880,2,1,0,0,2,0,2,0,0,0,0,1,1,5891,
scooby_state_59cd9b|19|0 2,5783,1,1,1,1,0,1,0,2,0,1,1,0,0,5794,
scooby_state_59cd9b|26|0 3,5768,0,0,0,0,2,0,1,0,0,1,0,0,1,5776,
scooby_state_59cd9b|20|0 0,5740,0,0,0,3,1,0,1,0,1,1,1,0,0,5748,
scooby_state_59cd9b|27|0 4,5732,0,1,0,0,2,1,0,0,0,1,1,0,0,5742,
scooby_state_59cdf2|4|1 196,5498,3,11,1,0,5,2,3,1,2,3,8,3,2,5738,
scooby_state_59cdf2|29|1 168,5533,3,6,3,0,1,0,1,3,1,7,6,4,2,5738,
scooby_state_59cd9b|32|0 4,5681,0,1,1,0,0,0,1,0,1,0,0,0,1,5690,
scooby_state_59cdf2|20|1 128,5535,5,5,0,0,0,1,3,2,2,2,2,0,1,5686,
scooby_state_59cdf2|3|1 305,5332,6,6,2,2,4,1,2,1,0,4,3,2,5,5675,
scooby_state_59cd9b|35|0 4,5626,1,0,0,0,1,2,0,1,0,0,2,0,0,5637,
scooby_state_59cd9b|15|0 0,5621,0,1,0,2,2,1,1,0,0,1,1,0,1,5631,
scooby_state_59cdf2|28|1 176,5408,3,8,1,1,1,0,3,2,0,1,4,0,2,5610,
scooby_state_59cd9b|17|0 1,5581,0,0,0,1,1,1,0,0,2,0,1,0,0,5588,
scooby_state_59cd9b|18|0 1,5570,0,1,1,1,0,2,1,3,1,0,0,1,0,5582,
scooby_state_59cd9b|6|0 1,5571,3,1,0,0,1,0,0,1,1,0,0,0,0,5579,
scooby_state_59cd9b|25|0 1,5561,0,1,1,1,1,0,1,0,0,0,0,0,0,5567,
scooby_state_59cdf2|63|1 280,5243,4,8,1,1,1,0,1,2,1,4,3,1,2,5552,
scooby_state_59cd9b|29|0 4,5526,1,0,1,0,1,0,1,1,0,2,2,0,3,5542,
scooby_state_59cdf2|18|1 300,5216,0,4,1,4,0,1,3,2,1,2,2,0,2,5538,
scooby_state_59cdf2|9|1 230,5278,2,6,1,1,2,1,2,0,0,0,1,2,3,5529,
scooby_state_59cd9b|9|0 3,5505,0,1,0,1,0,0,2,0,0,0,2,1,1,5516,
scooby_state_59cdf2|19|1 289,5170,3,13,1,1,3,3,1,0,1,2,4,0,3,5494,
scooby_state_59cdf2|35|1 217,5241,1,5,0,4,2,2,3,1,0,1,8,1,2,5488,
scooby_state_59cd9b|47|0 1,5439,1,1,0,4,0,0,1,1,1,0,2,1,1,5453,
scooby_state_59cdf2|43|1 526,4844,7,22,1,3,5,1,1,2,0,5,3,2,6,5428,
scooby_state_59cdf2|13|1 326,5043,2,9,1,1,2,2,2,0,1,2,5,5,4,5405,
scooby_state_59cd9b|28|0 4,5392,1,1,0,0,0,0,0,0,0,0,3,0,0,5401,
scooby_state_59cdf2|2|1 259,5092,3,9,3,1,2,0,3,2,2,6,5,1,3,5391,
scooby_state_59cd9b|54|0 3,5345,1,0,2,1,0,2,2,0,2,1,0,1,0,5360,
scooby_state_59cdf2|23|1 222,5107,4,6,2,0,2,0,1,2,2,4,2,1,2,5357,
scooby_state_59cd9b|11|0 2,5343,0,1,1,1,0,1,1,1,1,1,1,0,0,5354,
scooby_state_59cdf2|6|1 291,4995,3,10,0,4,2,1,1,0,0,7,6,5,3,5328,
scooby_state_59cdf2|34|1 376,4918,2,4,1,0,2,0,1,1,1,3,2,1,0,5312,
scooby_state_59cdf2|32|1 237,5045,2,2,3,1,1,1,2,0,3,2,4,0,2,5305,
scooby_state_59cd9b|5|0 4,5289,0,3,0,0,1,2,0,0,0,1,0,2,0,5302,
scooby_state_59cd9b|33|0 3,5278,0,0,2,0,0,1,0,1,1,1,0,0,0,5287,
scooby_state_59cdf2|31|1 232,5005,0,1,2,0,4,2,3,4,2,3,0,0,2,5260,
scooby_state_59cd9b|40|0 1,5235,0,1,0,2,0,0,1,0,0,0,1,1,0,5242,
scooby_state_59cdf2|25|1 249,4929,1,15,1,2,5,4,0,0,0,9,3,2,3,5223,
scooby_state_59cdf2|21|1 160,5028,0,4,1,0,8,1,0,0,1,2,1,4,1,5211,
scooby_state_59cdf2|10|1 279,4898,4,6,1,2,0,2,0,1,1,2,3,2,3,5204,
scooby_state_59cd9b|22|0 3,5179,1,0,1,0,1,2,0,0,0,1,0,0,0,5188,
scooby_state_59cd9b|30|0 6,5121,0,0,1,1,0,0,1,0,0,1,2,2,1,5136,
scooby_state_59cd9b|34|0 1,5117,0,1,0,0,0,0,1,1,2,0,0,0,1,5124,
scooby_state_59cd9b|50|0 0,5080,0,2,0,0,3,1,0,0,2,0,1,1,0,5090,
scooby_state_59cd9b|36|0 1,5071,1,0,1,1,0,0,2,2,0,3,1,0,0,5083,
scooby_state_59cdf2|56|1 240,4807,3,8,0,2,1,0,2,1,3,1,3,1,2,5074,
scooby_state_59cd9b|44|0 2,5056,0,0,1,0,1,0,1,1,0,0,0,0,1,5063,
scooby_state_59cd9b|8|0 0,5051,0,1,0,2,1,1,1,1,1,0,0,0,1,5060,
scooby_state_59cd9b|31|0 4,5024,0,1,1,0,1,3,2,4,0,0,0,0,2,5042,
scooby_state_59cdf2|22|1 341,4676,2,4,0,3,2,1,0,2,3,3,0,0,5,5042,
scooby_state_59cdf2|61|1 288,4698,7,17,3,2,2,1,2,4,0,3,5,2,2,5036,
scooby_state_59cdf2|42|1 187,4817,2,4,1,2,1,2,1,1,2,2,2,1,2,5027,
scooby_state_59cdf2|15|1 189,4803,4,4,1,0,2,0,2,2,2,3,4,0,2,5018,
scooby_state_59cd8d|63|0 4777,204,1,1,1,2,2,1,1,4,4,5,1,2,10,5016,
scooby_state_59cdf2|49|1 129,4852,1,7,1,3,1,3,0,2,2,2,0,1,1,5005,
scooby_state_59cd9b|62|0 3,4984,1,0,1,0,0,1,1,1,0,1,1,1,0,4995,
scooby_state_59cdf2|14|1 154,4824,0,4,0,1,2,0,2,1,0,2,2,1,2,4995,
scooby_state_59cd9b|39|0 2,4936,0,2,1,2,0,0,0,1,0,1,0,0,2,4947,
scooby_state_59cd9b|53|0 5,4922,0,0,1,0,1,2,0,1,0,2,1,0,0,4935,
scooby_state_59cdf2|52|1 150,4762,1,8,1,2,1,0,0,1,1,2,1,0,3,4933,
scooby_state_59cdf2|7|1 91,4817,2,2,4,2,1,0,0,3,1,2,2,0,0,4927,
scooby_state_59cdbf|1|0 4897,2,0,0,0,0,2,2,1,2,1,1,1,2,1,4912,
scooby_state_59cdf2|59|1 337,4546,3,5,0,2,4,4,1,0,1,3,2,1,2,4911,
scooby_state_59cdf2|57|1 261,4609,3,8,0,0,2,1,0,3,0,0,1,1,2,4891,
scooby_state_59cdf2|33|1 211,4653,1,3,0,1,3,0,1,1,2,1,4,0,2,4883,
scooby_state_59cdf2|60|1 252,4585,0,1,1,2,2,2,4,0,0,4,3,4,3,4863,
scooby_state_59cd9b|7|0 5,4850,0,0,0,0,1,0,0,0,1,0,1,1,0,4859,
scooby_state_59cdf2|47|1 283,4520,5,6,1,1,1,1,2,2,0,6,2,0,2,4832,
scooby_state_59cd9b|23|0 1,4800,0,0,1,0,2,1,2,1,0,1,1,1,0,4811,
scooby_state_59cdf2|30|1 278,4453,2,5,3,2,4,0,2,2,1,5,5,1,3,4766,
scooby_state_59cdf2|26|1 217,4502,0,3,1,4,1,3,0,1,0,1,0,4,1,4738,
scooby_state_59cd9b|48|0 2,4707,2,0,0,0,0,1,1,0,0,0,0,0,0,4713,
scooby_state_59cd9b|45|0 3,4700,0,0,1,1,1,0,0,1,1,1,0,1,0,4710,
scooby_state_59cd9b|24|0 5,4687,1,1,0,2,0,2,1,2,1,0,0,1,1,4704,
scooby_state_59cd9b|49|0 0,4663,2,0,1,0,0,0,0,0,0,0,2,0,0,4668,
scooby_state_59cdf2|58|1 188,4444,2,2,1,1,1,2,2,0,1,2,0,2,3,4651,
scooby_state_59cdf2|16|1 182,4453,2,2,0,1,0,0,0,0,1,3,3,1,2,4650,
scooby_state_59cd9b|46|0 2,4633,0,0,1,1,0,0,0,0,0,2,3,0,2,4644,
scooby_state_59cdf2|37|1 153,4454,2,3,3,1,2,1,1,0,0,2,0,2,2,4626,
scooby_state_59cd9b|21|0 3,4614,1,0,1,0,0,0,1,2,2,0,0,0,2,4626,
scooby_state_59cdf2|5|1 227,4364,0,5,0,0,1,1,0,1,1,1,2,2,2,4607,
scooby_state_59cdf2|54|1 305,4249,4,6,3,2,1,1,0,3,4,3,4,1,6,4592,
scooby_state_59cdf2|39|1 201,4360,1,5,2,2,4,0,0,0,2,2,3,0,1,4583,
scooby_state_59cd9b|10|0 2,4572,0,1,0,0,2,1,0,1,0,0,0,0,0,4579,
scooby_state_59cd9b|12|0 3,4557,0,0,0,1,1,1,2,0,0,1,0,0,0,4566,
scooby_state_59cd9b|13|0 3,4538,0,1,2,1,0,0,1,0,0,0,2,0,0,4548,
scooby_state_59cd9b|51|0 0,4531,0,0,0,1,0,0,0,0,0,0,0,0,0,4532,
scooby_state_59cd9b|60|0 2,4517,0,1,1,1,0,0,1,1,1,0,0,1,1,4527,
scooby_state_59cdf2|44|1 156,4345,0,2,0,0,1,1,1,0,0,1,5,2,2,4516,
scooby_state_59cd9b|63|0 1,4494,0,1,0,1,1,0,1,1,4,1,1,2,0,4508,
scooby_state_59cd9b|56|0 3,4488,0,0,1,3,0,1,0,1,1,0,0,2,0,4500,
scooby_state_59cdf2|46|1 168,4284,2,14,2,0,4,0,2,0,1,2,4,5,4,4492,
scooby_state_59cd9b|43|0 3,4481,0,1,1,2,0,0,0,0,0,0,2,1,0,4491,
scooby_state_59cdf2|38|1 172,4272,1,6,0,1,4,1,1,0,1,7,3,0,3,4472,
scooby_state_59cdf2|62|1 162,4294,1,1,2,0,0,2,1,0,0,2,1,2,0,4468,
scooby_state_59cdf2|41|1 276,4175,0,0,0,1,2,1,0,1,3,2,1,2,2,4466,
scooby_state_59cdf2|24|1 378,4003,4,24,1,1,5,1,1,1,2,5,4,4,4,4438,
scooby_state_59cd9b|41|0 2,4408,1,0,0,1,0,0,0,1,0,0,0,0,0,4413,
scooby_state_59cdf2|53|1 128,4182,2,1,1,0,1,1,2,0,0,0,3,1,0,4322,
scooby_state_59cdf2|11|1 233,4056,4,5,1,2,1,1,4,1,0,1,2,0,3,4314,
scooby_state_59cd9b|57|0 5,4281,0,0,0,1,0,0,0,1,0,2,1,2,1,4294,
scooby_state_59cdf2|48|1 354,3903,1,3,2,0,2,0,1,0,1,2,0,0,2,4271,
scooby_state_59cd9b|59|0 2,4237,2,0,0,1,1,1,0,1,0,1,0,0,1,4247,
scooby_state_59cdbf|38|1 4178,0,0,0,0,1,0,0,0,1,1,1,0,2,2,4186,
scooby_state_59cdf2|27|1 152,4002,3,7,0,1,1,1,1,1,0,2,4,0,1,4176,
scooby_state_59cd9b|38|0 2,4116,1,0,0,1,0,0,1,0,0,1,2,0,0,4124,
scooby_state_59cdbf|53|1 4070,0,0,1,1,0,0,0,2,0,1,2,0,1,2,4080,
scooby_state_59cd9b|61|0 3,4055,0,0,1,0,2,0,0,0,1,2,0,0,0,4064,
scooby_state_59cdf2|45|1 130,3867,3,4,1,3,3,0,1,1,2,2,3,2,2,4024,
scooby_state_59cd9b|55|0 2,3962,1,0,1,0,0,0,0,1,0,0,1,0,0,3968,
scooby_state_59cd9b|42|0 1,3935,0,1,0,1,0,1,0,0,0,2,0,0,0,3941,
scooby_state_59cdf2|51|1 156,3758,3,3,2,1,2,1,0,0,1,2,2,0,0,3931,
scooby_state_59cdbf|54|2 3897,0,0,1,1,1,2,0,2,2,0,0,1,0,0,3907,
scooby_state_59cdbf|48|1 3874,0,1,1,0,1,1,1,1,2,1,0,1,0,0,3884,
scooby_state_59cd9b|58|0 4,3796,1,0,0,1,0,1,1,0,0,0,0,0,0,3804,
scooby_state_59cdbf|12|1 3776,0,1,2,2,2,0,0,2,0,1,1,0,0,0,3787,
scooby_state_59cdbf|15|1 3728,1,0,1,0,2,2,1,0,0,2,0,1,0,1,3739,
scooby_state_59cdbf|10|1 3643,0,2,2,0,1,1,0,0,0,1,1,1,1,0,3653,
scooby_state_59cdbf|49|2 3629,0,0,0,0,0,0,1,1,0,0,1,1,1,0,3634,
scooby_state_59cdbf|62|2 3623,0,1,1,2,1,0,1,0,0,1,0,2,0,0,3632,
scooby_state_59cdbf|33|1 3585,1,0,0,0,0,2,1,1,1,0,0,1,0,0,3592,
scooby_state_59cdbf|16|1 3555,2,0,0,0,1,0,0,1,0,0,1,0,0,1,3561,
scooby_state_59cdbf|4|1 3548,0,0,0,0,0,1,1,0,0,0,0,0,0,1,3551,
scooby_state_59cdbf|17|1 3525,0,2,0,1,1,1,2,1,1,0,0,2,0,0,3536,
scooby_state_59cdbf|56|2 3524,1,0,0,0,0,0,0,0,0,1,0,1,0,0,3527,
scooby_state_59cdbf|51|1 3520,1,0,0,0,1,0,0,0,1,0,0,1,1,1,3526,
scooby_state_59cdbf|46|2 3511,1,2,0,2,0,1,2,1,0,0,0,0,1,0,3521,
scooby_state_59cdbf|15|2 3479,0,0,1,1,0,1,0,0,0,1,1,0,0,1,3485,
scooby_state_59cdbf|41|2 3474,1,0,1,1,0,1,0,1,1,1,0,0,0,1,3482,
scooby_state_59cdbf|14|2 3460,0,0,1,1,0,1,0,1,0,0,0,0,0,1,3465,
scooby_state_59cdbf|21|2 3447,0,0,0,0,1,0,0,1,0,3,0,0,2,1,3455,
scooby_state_59cdbf|3|2 3433,1,1,0,0,2,0,0,1,1,0,0,1,1,1,3442,
scooby_state_59cdbf|39|2 3423,0,1,1,0,1,0,0,0,1,0,0,0,0,1,3428,
scooby_state_59cdbf|33|2 3419,1,0,0,1,0,0,0,0,1,1,0,0,0,0,3423,
scooby_state_59cdbf|37|2 3366,0,0,2,0,0,0,2,1,0,1,0,0,0,1,3373,
scooby_state_59cdbf|19|2 3362,1,0,1,0,0,1,2,0,0,1,0,0,1,0,3369,
scooby_state_59cdbf|19|1 3355,1,1,1,1,0,1,0,1,0,1,1,0,1,1,3365,
scooby_state_59cdbf|41|1 3362,0,0,0,0,0,0,0,0,1,1,0,0,0,1,3365,
scooby_state_59cdbf|55|2 3357,0,1,0,0,0,0,0,1,0,0,0,0,0,1,3360,
scooby_state_59cdbf|30|1 3353,0,0,1,2,0,1,0,1,0,0,0,1,0,1,3360,
scooby_state_59cdbf|28|2 3347,1,0,0,0,1,1,1,0,0,0,0,1,0,0,3352,
scooby_state_59cdbf|16|2 3335,1,0,0,0,0,0,2,0,1,0,0,0,2,0,3341,
scooby_state_59cdbf|62|1 3331,2,0,0,0,1,0,1,0,1,0,0,0,0,2,3338,
scooby_state_59cde2|2|0 3277,8,7,11,1,2,2,0,2,2,2,5,3,4,5,3331,
scooby_state_59cdbf|57|2 3326,1,0,0,0,0,1,0,0,0,0,0,0,1,0,3329,
scooby_state_59cdbf|7|1 3321,0,0,2,1,1,1,0,0,1,1,0,0,0,0,3328,
scooby_state_59cdbf|23|1 3306,1,0,1,1,0,0,1,2,1,2,0,0,1,2,3318,
scooby_state_59cd8d|0|-4 2012,1173,36,1,0,10,2,0,0,2,1,0,7,2,63,3309,
scooby_state_59cdbf|31|2 3289,1,0,1,0,1,0,0,0,1,1,0,1,1,1,3297,
scooby_state_59cdbf|42|2 3290,0,0,0,1,1,1,0,0,1,0,0,0,0,0,3294,
scooby_state_59cdbf|22|2 3285,0,0,0,0,0,1,1,0,0,0,0,1,2,0,3290,
scooby_state_59cdbf|8|1 3282,1,1,0,0,0,0,1,0,0,1,1,0,1,1,3289,
scooby_state_59cdbf|26|1 3259,0,0,0,2,1,0,0,0,0,0,0,0,0,0,3262,
scooby_state_59cdbf|48|2 3259,0,0,0,0,0,0,0,0,1,0,0,0,0,1,3261,
scooby_state_59cdbf|31|1 3259,0,1,0,0,0,0,0,0,1,0,0,0,0,0,3261,
scooby_state_59cdbf|27|2 3239,1,1,0,0,0,2,0,1,1,1,0,0,0,3,3249,
scooby_state_59cdbf|1|1 3237,0,1,1,1,0,1,0,1,0,0,1,0,1,0,3244,
scooby_state_59cdbf|55|1 3225,0,1,1,0,1,0,0,1,1,0,1,0,1,1,3233,
scooby_state_59cdbf|6|2 3216,0,1,1,0,0,1,0,1,1,1,0,0,0,0,3222,
scooby_state_59cdbf|7|2 3209,0,0,1,0,0,0,0,1,0,0,0,1,1,1,3214,
scooby_state_59cdbf|18|2 3210,0,0,0,0,0,0,0,2,0,0,0,1,0,0,3213,
scooby_state_59cdbf|4|2 3200,0,1,0,0,0,1,2,0,0,0,2,1,0,1,3208,
scooby_state_59cdbf|34|2 3183,0,1,0,3,1,0,1,1,1,0,1,0,1,0,3193,
scooby_state_59cdbf|59|1 3176,1,1,0,1,0,0,0,0,0,2,1,1,0,0,3183,
scooby_state_59cdbf|27|1 3175,1,0,0,0,0,1,0,0,1,0,0,0,0,0,3178,
scooby_state_59cdbf|61|2 3159,0,0,0,0,1,0,0,0,2,0,0,0,0,1,3163,
scooby_state_59cdbf|58|1 3154,0,0,0,0,0,1,1,0,0,0,3,1,0,1,3161,
scooby_state_59cdbf|29|1 3149,1,0,0,0,0,3,1,1,0,1,0,0,0,1,3157,
scooby_state_59cdbf|5|2 3140,1,1,2,1,0,1,0,0,0,1,0,0,2,0,3149,
scooby_state_59cd8d|59|-4 2019,986,27,2,1,12,3,2,0,0,1,0,3,1,81,3138,
scooby_state_59cd8d|51|-4 2154,885,20,0,0,6,1,0,2,1,1,1,11,0,48,3130,
scooby_state_59cdbf|43|2 3113,0,0,0,0,0,0,0,1,0,0,1,1,0,0,3116,
scooby_state_59cdbf|3|1 3102,1,0,0,0,0,0,1,0,0,1,0,0,0,0,3105,
scooby_state_59cdbf|59|2 3087,0,0,0,0,0,0,1,0,2,1,1,1,1,0,3094,
scooby_state_59cdbf|36|1 3084,1,0,0,0,0,0,0,0,2,0,0,0,1,0,3088,
scooby_state_59cdbf|63|1 3080,0,1,0,2,0,1,0,0,0,0,1,1,1,0,3087,
scooby_state_59cdbf|12|2 3071,1,2,2,2,1,1,0,0,0,0,1,0,0,0,3081,
scooby_state_59cdbf|34|1 3077,0,0,0,0,1,0,0,0,1,0,0,0,0,1,3080,
scooby_state_59cdbf|45|2 3073,0,0,1,0,0,0,0,0,1,1,0,0,1,0,3077,
scooby_state_59cdbf|35|2 3061,1,2,0,0,0,0,0,0,0,1,0,0,0,0,3065,
scooby_state_59cdbf|52|1 3042,1,1,0,1,0,0,0,0,0,0,1,3,1,0,3050,
scooby_state_59cdbf|50|1 3045,0,0,0,0,0,1,1,0,1,0,2,0,0,0,3050,
scooby_state_59cdbf|30|2 3037,0,0,0,1,0,0,0,0,1,1,0,3,0,0,3043,
scooby_state_59cdbf|20|2 3031,0,0,1,1,0,1,1,0,0,1,0,0,0,2,3038,
scooby_state_59cdbf|24|1 3017,0,0,1,4,1,0,0,1,0,0,1,1,1,1,3028,
scooby_state_59cdbf|8|2 3018,0,0,2,1,1,1,0,0,1,1,0,0,1,0,3026,
scooby_state_59cdbf|17|2 3009,0,0,0,0,1,0,0,1,1,0,3,0,0,0,3015,
scooby_state_59cdbf|37|1 3007,2,0,0,0,0,0,1,0,1,1,0,0,0,0,3012,
scooby_state_59cdbf|47|2 3006,0,0,0,0,0,1,1,0,0,0,0,0,1,0,3009,
scooby_state_59cdbf|21|1 3003,1,0,1,0,0,0,0,0,2,0,0,1,1,0,3009,
scooby_state_59cdbf|46|1 2996,0,2,1,0,0,1,2,0,0,1,0,0,0,0,3003,
scooby_state_59cdbf|60|1 2987,0,0,0,0,1,0,0,0,1,0,0,2,0,0,2991,
scooby_state_59cdbf|29|2 2975,0,0,0,1,0,0,0,0,0,0,0,1,0,0,2977,
scooby_state_59cdbf|20|1 2956,1,0,0,0,0,1,1,0,1,0,0,0,1,0,2961,
scooby_state_59cdbf|60|2 2947,0,2,1,0,0,1,0,0,0,1,0,0,1,0,2953,
scooby_state_59cdcb|35|1 2939,0,0,1,1,1,0,1,0,0,0,0,0,0,1,2944,
scooby_state_59cdbf|18|1 2908,1,0,0,0,0,1,1,0,2,0,0,0,0,1,2914,
scooby_state_59cd8d|5|-4 1737,1085,17,1,0,8,2,1,0,1,0,1,1,0,42,2896,
scooby_state_59cdcf|63|1 356,47,1,5,0,2,1,0,0,1,1,0,2479,0,1,2894,
scooby_state_59cdbf|57|1 2866,0,0,2,0,0,0,1,0,0,1,0,0,0,0,2870,
scooby_state_59cdbf|36|2 2865,0,0,0,1,0,1,0,0,0,0,0,0,0,0,2867,
scooby_state_59cd8d|25|-4 1950,808,24,1,1,10,0,2,2,0,0,1,10,1,57,2867,
scooby_state_59cdbf|28|1 2854,1,0,0,1,2,0,0,2,0,1,0,1,0,2,2864,
scooby_state_59cdbf|2|1 2849,0,1,0,0,0,2,1,1,1,0,0,0,0,0,2855,
scooby_state_59cdbf|11|2 2830,0,0,0,0,0,0,1,0,0,1,0,0,0,0,2832,
scooby_state_59cdbf|32|2 2809,0,0,0,1,1,0,0,1,1,0,0,1,0,0,2814,
scooby_state_59cdbf|25|2 2808,0,1,0,0,0,0,0,0,1,0,1,1,0,1,2813,
scooby_state_59cdbf|6|1 2806,0,0,0,1,0,0,0,1,0,0,0,0,0,0,2808,
scooby_state_59cdbf|10|2 2784,0,0,0,0,1,0,0,0,1,0,2,0,0,0,2788,
scooby_state_59cdbf|47|1 2772,0,0,0,0,0,0,0,1,0,0,0,2,0,1,2776,
scooby_state_59cdbf|51|2 2767,0,1,0,1,0,0,0,0,0,1,0,0,0,0,2770,
scooby_state_59cdbf|49|1 2766,1,0,0,0,0,0,0,0,0,1,0,1,0,1,2770,
scooby_state_59cde2|1|0 2713,9,0,9,0,0,1,4,3,1,3,10,5,3,2,2763,
scooby_state_59cd8d|46|-4 1603,1032,28,1,0,9,0,1,1,0,2,1,11,0,71,2760,
scooby_state_59cd8d|32|-4 1518,1099,27,0,0,13,2,0,0,1,0,0,3,0,83,2746,
scooby_state_59cd8d|15|-4 1869,831,8,3,0,1,1,1,0,0,0,2,0,0,23,2739,
scooby_state_59cdbf|58|2 2727,0,2,1,1,0,1,0,0,0,0,0,0,0,1,2733,
scooby_state_59cdbf|2|2 2720,0,0,0,1,1,0,0,0,0,0,1,0,1,1,2725,
scooby_state_59cd8d|31|-4 1806,792,27,1,0,8,4,0,1,1,0,1,10,0,65,2716,
scooby_state_59cdbf|40|2 2708,1,1,1,0,0,1,1,0,0,0,0,1,0,1,2715,
scooby_state_59cdcb|49|1 2696,0,0,0,0,0,0,0,0,1,1,1,1,0,1,2701,
scooby_state_59cdbf|11|1 2695,0,0,0,0,0,0,0,0,1,1,1,0,0,0,2698,
scooby_state_59cd8d|48|-4 1675,959,12,1,0,3,1,0,1,0,0,1,3,1,37,2694,
scooby_state_59cdbf|5|1 2689,0,1,1,0,0,0,0,0,1,0,0,0,0,0,2692,
scooby_state_59cdbf|54|1 2678,0,0,0,0,0,0,0,0,1,0,1,2,0,0,2682,
scooby_state_59cd8d|53|-4 1442,1117,29,0,0,12,0,0,0,1,1,1,5,1,73,2682,
scooby_state_59cdbf|23|2 2657,0,0,1,1,0,0,0,1,0,0,0,1,1,0,2662,
scooby_state_59cdbf|38|2 2657,0,0,0,0,0,1,0,0,0,0,0,0,1,0,2659,
scooby_state_59cd8d|11|-4 1603,1003,8,1,3,3,0,1,3,1,0,0,4,0,26,2656,
scooby_state_5010bd|0|0 2087,167,0,103,156,106,1,0,0,0,0,2,14,0,1,2637,
scooby_state_59cdbf|13|2 2611,0,0,0,0,0,0,1,0,0,1,0,0,2,0,2615,
scooby_state_59cd8d|39|-4 1465,1063,17,1,0,8,0,1,2,0,0,0,6,2,41,2606,
scooby_state_59cdee|55|1 857,4,3,9,0,2,1,0,0,3,1,1,0,11,1689,2581,
scooby_state_59cdbf|25|1 2580,0,0,0,0,0,0,0,0,0,0,0,0,0,0,2580,
scooby_state_59cd8d|8|-4 1592,875,16,1,1,10,2,1,2,1,0,0,14,3,58,2576,
scooby_state_59cd8d|43|-4 1294,1161,24,0,0,7,3,0,1,1,1,0,5,2,74,2573,
scooby_state_59cdbf|35|1 2559,0,0,0,0,0,0,1,1,0,0,0,0,0,0,2561,
scooby_state_59cd8d|9|-4 1563,917,14,0,0,9,0,0,0,0,1,0,8,1,46,2559,
scooby_state_59cdcb|2|1 2556,0,0,0,0,0,0,0,0,0,0,0,0,1,0,2557,
scooby_state_59cdbf|32|1 2552,0,0,0,0,2,0,0,0,0,1,0,0,0,0,2555,
scooby_state_59cdbf|22|1 2540,0,0,0,1,0,0,0,0,0,0,0,0,1,0,2542,
scooby_state_59cdbf|45|1 2529,0,1,0,0,1,0,0,2,1,0,0,0,0,0,2534,
scooby_state_59cd8d|57|-4 1592,831,23,0,2,8,1,1,0,0,0,2,2,1,61,2524,
scooby_state_59cdcb|54|1 2507,0,0,0,1,0,0,0,0,0,1,0,0,0,0,2509,
scooby_state_59cde2|59|0 2398,8,7,23,1,2,8,0,3,2,2,31,6,2,6,2499,
scooby_state_59cdbf|56|1 2490,1,0,0,0,0,0,0,0,0,0,2,1,0,0,2494,
scooby_state_59cdbf|24|2 2486,0,1,0,0,1,0,0,0,0,0,1,0,0,0,2489,
scooby_state_59cd8d|45|-4 1555,844,22,0,0,5,1,2,0,0,2,2,5,0,38,2476,
scooby_state_59cde2|61|0 2392,7,7,18,0,2,0,1,1,1,1,25,7,1,9,2472,
scooby_state_59cd8d|62|-1 2421,30,0,2,0,1,0,0,0,0,6,0,9,0,1,2470,
scooby_state_59cdbf|28|0 2466,0,0,0,0,0,0,1,0,0,0,0,0,0,0,2467,
scooby_state_59cdbf|9|2 2459,1,0,1,0,0,0,0,0,1,0,0,0,0,0,2462,
scooby_state_59cdbf|39|1 2455,0,2,0,0,0,1,0,0,0,0,0,0,0,1,2459,
scooby_state_59cd8d|10|-4 1754,631,13,0,0,3,1,0,2,0,3,2,8,1,29,2447,
scooby_state_59cdcb|61|1 2438,0,1,0,0,0,0,1,1,0,2,2,0,1,0,2446,
scooby_state_59cdcb|5|1 2432,1,1,1,2,1,0,1,1,2,0,0,0,1,0,2443,
scooby_state_59cde2|54|0 2426,2,1,1,2,0,1,1,2,0,1,1,0,1,1,2440,
scooby_state_59cdbf|40|1 2433,0,0,0,0,1,0,0,1,0,0,0,0,0,1,2436,
scooby_state_59cdbf|44|2 2432,0,0,0,0,1,0,0,0,0,0,1,0,0,0,2434,
scooby_state_59cdcb|60|1 2415,0,0,0,0,0,0,1,2,0,1,1,1,1,2,2424,
scooby_state_59cd8d|3|-4 1579,770,9,2,1,6,0,0,1,0,0,0,5,2,37,2412,
scooby_state_59cd8d|36|-4 1632,626,33,0,0,20,3,2,0,0,0,1,5,4,86,2412,
scooby_state_59cdcb|34|1 2401,0,0,0,1,2,0,0,1,1,1,0,0,0,0,2407,
scooby_state_59cde2|0|0 2357,3,8,12,1,2,1,1,1,2,0,7,1,1,6,2403,
scooby_state_59cdbf|53|2 2391,1,0,0,0,0,0,0,1,0,0,0,0,0,0,2393,
scooby_state_59cdbf|5|0 2390,0,0,1,0,0,0,0,0,1,1,0,0,0,0,2393,
scooby_state_59cd8d|24|-4 1404,906,14,0,0,6,0,3,1,1,0,0,4,0,53,2392,
scooby_state_59cdbf|26|2 2388,0,2,0,0,0,0,0,0,0,0,0,1,0,0,2391,
scooby_state_59cdbf|43|1 2385,0,0,0,0,0,1,0,1,0,0,0,1,0,0,2388,
scooby_state_59cde2|60|0 2375,1,0,0,0,1,0,0,1,0,0,0,3,0,0,2381,
scooby_state_59cdbf|9|1 2372,0,0,1,0,0,1,0,0,0,0,1,0,1,0,2376,
scooby_state_59cd8d|2|-4 1523,767,22,0,1,5,2,2,1,2,0,0,1,0,46,2372,
scooby_state_59cdcb|13|1 2364,0,0,0,0,0,0,0,0,0,0,1,0,0,0,2365,
scooby_state_59d4d1|1|0 2193,8,4,42,4,4,3,8,4,3,6,34,6,9,29,2357,
scooby_state_59cd8d|19|-4 1536,777,6,2,0,4,0,0,1,0,1,0,1,0,26,2354,
scooby_state_59cde2|52|0 2310,2,2,8,0,3,0,1,0,1,1,6,2,1,2,2339,
scooby_state_59cdbf|52|2 2333,0,0,0,0,0,1,1,0,0,0,0,1,0,0,2336,
scooby_state_59cd8d|61|-2 1550,653,0,1,24,1,6,6,4,2,11,5,23,7,38,2331,
scooby_state_59cd8d|60|-3 872,1392,20,1,2,3,3,3,4,1,5,2,0,2,16,2326,
scooby_state_59cd8d|58|-4 1587,649,18,0,0,7,1,0,0,0,0,1,3,1,54,2321,
scooby_state_59cdcb|20|1 2313,0,0,1,0,0,0,0,0,0,0,0,0,0,0,2314,
scooby_state_59cdcb|31|1 2309,0,1,1,0,1,1,0,0,0,0,1,0,0,0,2314,
scooby_state_59cde2|3|0 2290,3,1,1,1,2,1,0,1,1,1,4,1,0,0,2307,
scooby_state_59cd8d|55|-4 1392,877,7,1,0,2,1,1,0,0,1,1,2,0,20,2305,
scooby_state_59cdee|50|1 755,1,9,11,2,4,4,3,0,3,1,1,2,3,1505,2304,
scooby_state_59cd8d|52|-4 1394,835,20,1,1,6,1,0,1,0,0,0,1,0,42,2302,
scooby_state_59cd8d|6|-4 1168,1071,8,0,0,6,2,1,1,1,0,0,1,0,43,2302,
scooby_state_59cdcb|8|1 2296,0,1,0,0,0,1,0,0,0,1,1,0,1,1,2302,
scooby_state_59cdbf|12|0 2288,2,0,0,1,1,0,0,0,2,0,1,0,1,0,2296,
scooby_state_59cdee|61|1 768,2,14,17,3,0,1,0,1,6,1,2,1,4,1473,2293,
scooby_state_59cdcb|51|1 2288,1,0,0,0,0,0,0,0,1,0,0,0,2,0,2292,
scooby_state_59d4e0|4|1 1678,222,42,44,2,15,0,11,4,0,6,12,14,3,237,2290,
scooby_state_59cde2|7|0 2246,5,3,5,0,3,3,3,0,4,1,8,2,0,4,2287,
scooby_state_59cde2|5|0 2267,6,0,2,0,0,2,0,0,0,1,1,1,1,2,2283,
scooby_state_59cd8d|56|-4 1273,888,26,1,0,9,1,2,1,0,0,2,8,2,67,2280,
scooby_state_59cdcf|42|1 336,72,4,0,1,1,0,0,1,3,2,2,1856,1,1,2280,
scooby_state_59cdee|18|1 742,0,1,7,1,2,3,1,4,0,3,3,1,3,1508,2279,
scooby_state_59cdcb|24|1 2270,0,0,1,0,0,1,0,0,0,1,0,0,0,1,2274,
scooby_state_59cdbf|11|0 2269,0,0,1,0,0,0,0,1,0,1,0,0,0,2,2274,
scooby_state_59cdcb|47|1 2257,0,0,0,2,0,0,1,0,0,0,1,0,0,0,2261,
scooby_state_59cdcf|9|1 275,92,4,1,1,1,0,0,1,0,2,2,1872,1,2,2254,
scooby_state_59cdcb|32|1 2245,0,0,0,0,0,3,0,0,0,0,0,0,0,1,2249,
scooby_state_59cdcb|17|1 2240,1,0,0,1,1,0,1,0,1,0,0,0,0,0,2245,
scooby_state_59cde2|51|0 2211,7,4,7,0,2,0,3,1,2,0,3,2,1,1,2244,
scooby_state_59cdcf|52|1 203,68,0,1,0,0,1,0,0,1,1,0,1969,0,0,2244,
scooby_state_59cd8d|41|-4 1504,670,11,1,2,6,0,1,0,1,1,0,1,0,40,2238,
scooby_state_5010bb|0|0 2181,19,0,0,1,0,19,0,0,0,0,11,1,0,0,2232,
scooby_state_59cde2|4|0 2186,2,5,8,1,1,1,2,2,1,0,12,3,0,7,2231,
scooby_state_59cdbf|61|1 2226,0,0,1,0,0,0,0,0,0,0,1,0,0,2,2230,
scooby_state_59cde2|63|0 2205,3,0,0,3,0,0,2,0,0,0,1,9,1,3,2227,
scooby_state_59cdcf|39|1 192,78,3,3,0,1,2,0,0,0,0,0,1942,0,2,2223,
scooby_state_59cd8d|54|0 2077,127,0,3,2,1,0,0,0,1,1,3,1,1,3,2220,
scooby_state_59cd8d|28|-4 1437,737,10,0,0,4,0,0,1,0,1,1,4,0,11,2206,
scooby_state_59cdcb|3|1 2191,0,0,0,0,0,0,0,0,0,0,1,0,0,0,2192,
scooby_state_59cdee|49|1 756,1,9,16,2,1,3,1,0,4,2,2,1,4,1388,2190,
scooby_state_59cdcf|0|0 1713,43,2,3,1,1,0,2,1,0,0,0,418,1,2,2187,
scooby_state_59d4e0|40|1 1701,162,40,28,2,9,4,6,1,5,0,5,5,6,212,2186,
scooby_state_59cd8d|1|-4 1372,702,21,0,0,6,1,1,1,0,0,0,7,1,70,2182,
scooby_state_59cdcb|42|1 2176,1,1,0,0,0,0,1,0,2,0,0,0,1,0,2182,
scooby_state_59cdbf|42|1 2172,1,0,0,2,0,0,1,1,1,0,0,0,0,1,2179,
scooby_state_59cdbf|50|2 2176,0,0,0,0,0,0,0,0,0,0,0,0,0,0,2176,
scooby_state_59cdcb|48|1 2168,2,0,1,1,0,0,0,0,2,0,0,0,0,0,2174,
scooby_state_59cde2|9|0 2099,6,4,28,1,2,2,2,3,2,1,14,4,1,4,2173,
scooby_state_59cdcf|16|1 180,112,1,0,1,1,1,1,1,0,0,0,1873,0,1,2172,
scooby_state_59cd8d|50|-4 1131,964,17,0,0,6,0,0,0,0,3,2,2,1,44,2170,
scooby_state_59cdcb|22|1 2158,0,1,0,0,1,0,0,0,1,1,0,0,0,0,2162,
scooby_state_59cdcf|57|1 217,108,4,0,0,1,0,1,0,0,0,1,1821,1,0,2154,
scooby_state_59cdcf|54|1 251,54,1,1,0,0,0,0,1,1,0,1,1834,0,2,2146,
scooby_state_59cdbf|63|2 2138,0,0,0,0,1,0,0,1,1,1,0,0,0,0,2142,
scooby_state_59cdbf|14|0 2136,0,0,0,1,0,0,0,0,0,0,0,2,1,1,2141,
scooby_state_59cdcb|0|0 2134,0,0,0,0,0,0,0,1,0,1,0,0,0,0,2136,
scooby_state_59d4e0|59|1 1559,267,49,30,0,10,3,8,1,2,1,7,6,2,190,2135,
scooby_state_59cdee|40|1 705,0,5,9,0,2,2,2,5,2,0,1,1,7,1368,2109,
scooby_state_59cdbf|42|0 2097,0,1,0,0,0,0,0,0,1,1,0,1,0,0,2101,
scooby_state_59cde2|62|0 2068,7,1,0,0,0,1,0,1,3,2,7,3,0,3,2096,
scooby_state_59cde2|48|0 2084,2,2,5,0,0,1,0,1,0,0,0,0,0,0,2095,
scooby_state_59cdbf|14|1 2088,0,0,0,0,0,1,0,0,0,0,1,0,0,1,2091,
scooby_state_59cdcb|39|1 2087,0,0,0,0,0,0,1,0,0,0,1,0,1,0,2090,
scooby_state_59cd8d|49|-4 1306,750,4,1,0,2,0,1,0,0,0,1,1,0,21,2087,
scooby_state_59cdcb|27|1 2085,0,0,0,0,0,0,0,1,0,0,0,0,0,0,2086,
scooby_state_59cde2|37|0 2061,2,3,5,0,0,0,4,0,0,2,1,4,0,2,2084,
scooby_state_59cd8d|18|-4 1255,757,14,2,1,2,2,2,2,0,0,0,2,0,43,2082,
scooby_state_59cdee|39|1 711,1,5,7,1,2,0,1,1,4,1,1,1,6,1333,2075,
scooby_state_59cdcb|55|1 2066,1,0,0,0,0,1,2,1,1,0,1,0,0,0,2073,
scooby_state_59cdbf|44|1 2068,0,0,1,0,1,0,0,0,1,0,0,0,0,0,2071,
scooby_state_59cde2|10|0 2035,4,2,1,1,0,0,1,0,0,2,15,7,1,1,2070,
scooby_state_59cd8d|20|-4 1111,887,16,1,0,5,3,0,0,1,1,1,0,0,42,2068,
scooby_state_59cde2|56|0 2057,2,0,0,0,0,0,1,0,1,0,2,2,0,1,2066,
scooby_state_59cdee|25|1 677,3,3,2,0,0,1,2,2,1,2,4,0,4,1362,2063,
scooby_state_59cdbf|2|0 2055,1,1,0,0,1,1,0,1,0,0,1,0,0,1,2062,
scooby_state_59cd8d|17|-4 1525,502,7,0,0,2,1,1,2,0,0,0,0,1,19,2060,
scooby_state_59cdcf|19|1 275,143,3,3,0,2,0,0,2,0,0,0,1629,1,1,2059,
scooby_state_59cd8d|37|-4 1476,502,15,1,1,5,1,0,0,0,0,0,11,1,46,2059,
scooby_state_59cdee|8|1 657,4,5,8,1,1,0,2,3,1,1,2,2,6,1363,2056,
scooby_state_59cdcf|6|1 190,65,3,2,0,1,1,0,0,1,2,0,1789,0,0,2054,
scooby_state_59cd8d|21|-4 1399,622,6,1,0,5,0,0,2,0,0,0,5,0,10,2050,
scooby_state_59cdcb|63|1 2037,0,0,0,1,1,0,0,1,1,0,0,1,0,0,2042,
scooby_state_59cdcf|32|1 210,50,4,3,0,1,1,0,3,1,0,0,1755,1,0,2029,
scooby_state_59cde2|19|0 2008,5,1,0,2,0,3,0,0,0,2,1,4,1,2,2029,
scooby_state_59cde2|39|0 2015,3,0,0,0,0,1,1,1,1,0,2,3,1,1,2029,
scooby_state_59cdcb|11|1 2017,0,0,0,0,0,0,0,0,0,1,0,0,1,0,2019,
scooby_state_59cde2|45|0 1993,3,4,10,0,0,1,0,1,0,4,0,0,1,0,2017,
scooby_state_59d4e0|60|1 1474,267,40,32,4,8,5,7,3,1,1,3,6,1,163,2015,
scooby_state_59cd8d|27|-4 1278,673,8,1,0,3,2,0,0,2,1,2,2,0,39,2011,
scooby_state_59cd8d|29|-4 1251,717,7,0,1,1,2,1,0,0,0,0,3,0,24,2007,
scooby_state_59cd8d|7|-4 1429,504,13,0,0,6,1,1,1,0,1,0,7,0,39,2002,
scooby_state_59cdee|59|1 669,2,6,10,0,1,0,5,0,1,0,3,2,8,1291,1998,
scooby_state_59cdee|29|1 724,0,2,6,1,1,0,1,2,1,1,3,2,4,1249,1997,
scooby_state_59cdcf|50|1 262,49,4,3,1,0,0,1,0,0,1,0,1672,0,1,1994,
scooby_state_59cd8d|54|-4 1153,785,13,2,1,4,0,1,0,0,1,0,2,1,30,1993,
scooby_state_59cdcf|58|1 199,44,1,0,2,0,0,0,0,1,0,0,1743,1,0,1991,
scooby_state_59cde2|17|0 1976,2,2,4,0,1,0,0,0,0,1,1,0,0,1,1988,
scooby_state_59cdee|33|1 681,3,9,14,0,2,2,0,0,4,2,1,3,4,1262,1987,
scooby_state_59cdee|11|1 638,2,2,11,1,1,1,1,3,2,1,4,0,3,1315,1985,
scooby_state_59cde2|27|0 1973,4,0,1,1,0,0,0,0,1,0,1,4,0,0,1985,
scooby_state_59cdcb|16|1 1980,0,0,0,0,2,0,0,0,0,1,1,0,0,0,1984,
scooby_state_59cd8d|33|-4 1259,658,13,1,0,4,0,0,1,0,1,1,12,0,32,1982,
scooby_state_59cde2|6|0 1957,0,2,6,2,0,0,2,1,3,0,4,2,1,0,1980,
scooby_state_59cd8d|34|-4 1214,724,13,0,1,2,1,0,2,0,0,0,0,0,22,1979,
scooby_state_59d4d1|2|0 1903,4,3,9,2,3,1,4,3,4,0,10,2,5,23,1976,
scooby_state_59d4e0|41|1 1502,234,37,16,3,7,1,3,7,3,1,1,4,3,154,1976,
scooby_state_59cdcb|29|1 1969,0,1,1,0,0,0,0,0,1,0,0,0,0,0,1972,
scooby_state_59cdee|24|1 629,2,6,8,3,3,3,1,2,4,2,0,0,4,1301,1968,
scooby_state_59cd8d|44|-4 1086,822,10,1,0,3,0,1,0,0,1,2,2,0,38,1966,
scooby_state_59cde2|18|0 1933,2,4,6,0,1,0,1,1,1,1,5,2,1,5,1963,
scooby_state_59cde2|8|0 1953,1,1,0,2,0,0,1,0,1,0,0,0,1,2,1962,
scooby_state_59cdbf|7|0 1959,0,0,0,0,0,0,0,0,0,0,0,0,0,0,1959,
scooby_state_59cdcf|22|1 273,58,3,1,0,1,0,1,0,0,2,0,1618,0,2,1959,
scooby_state_59cd8d|42|-4 1162,740,8,0,1,4,0,0,0,0,0,0,2,0,34,1951,
scooby_state_59cdcb|59|1 1936,2,1,0,1,0,1,0,1,0,0,0,0,1,0,1943,
scooby_state_59cdbf|43|0 1936,0,1,1,0,0,0,0,0,0,0,0,0,2,0,1940,
scooby_state_59cdcb|28|1 1934,1,0,0,0,0,0,2,0,0,0,0,0,0,0,1937,
scooby_state_59cde2|23|0 1925,1,2,5,0,0,0,0,0,0,0,2,1,1,0,1937,
scooby_state_59cdee|4|1 652,1,5,11,3,2,0,1,2,2,0,1,0,3,1252,1935,
scooby_state_59cd8d|14|-4 1047,854,7,2,0,1,1,0,0,0,0,0,0,0,23,1935,
scooby_state_59cde2|20|0 1923,2,0,1,0,1,0,0,0,1,1,0,2,1,0,1932,
scooby_state_59cdcf|18|1 120,100,5,3,0,0,0,2,1,0,0,1,1697,0,2,1931,
scooby_state_59cdcf|56|1 93,81,0,0,0,0,0,2,0,1,0,0,1750,1,0,1928,
scooby_state_59cd8d|47|-4 1402,474,11,1,1,2,0,0,0,0,0,1,0,1,33,1926,
scooby_state_59cde2|53|0 1918,2,0,0,0,0,0,0,1,1,2,0,0,0,0,1924,
scooby_state_59d4e0|8|1 1493,172,23,29,2,11,1,5,1,4,3,7,7,2,147,1907,
scooby_state_59cd8d|61|0 1834,60,0,0,0,0,1,1,2,1,0,1,0,0,3,1903,
scooby_state_59cde2|28|0 1805,14,9,20,0,0,5,2,2,1,0,25,5,2,12,1902,
scooby_state_59cde2|47|0 1891,1,2,0,0,0,2,0,1,0,1,0,0,0,0,1898,
scooby_state_59cdbf|4|0 1892,0,0,0,0,1,0,0,1,0,1,1,0,1,1,1898,
scooby_state_59cdee|52|1 646,0,12,16,0,1,2,0,1,5,3,4,1,8,1198,1897,
scooby_state_59cd8d|44|0 1774,107,1,0,0,1,1,1,1,0,0,2,1,0,3,1892,
scooby_state_59cd8d|26|-4 1260,588,14,0,0,3,2,0,0,0,0,0,2,0,22,1891,
scooby_state_59d4e0|7|1 1465,160,38,20,0,5,1,6,1,0,3,3,4,2,183,1891,
scooby_state_59cdcb|21|1 1885,1,0,1,0,0,0,0,0,0,0,0,1,0,0,1888,
scooby_state_59cdcf|11|1 78,68,1,1,2,1,0,0,2,1,1,1,1728,2,1,1887,
scooby_state_59cdee|10|1 652,3,3,5,1,0,0,0,2,1,2,2,0,6,1210,1887,
scooby_state_59cdee|35|1 673,1,2,6,1,0,0,2,1,1,2,2,3,4,1188,1886,
scooby_state_59cdee|34|1 653,1,5,12,3,2,2,0,0,6,0,0,0,4,1196,1884,
scooby_state_59cdee|47|1 617,0,7,7,2,1,1,0,0,4,0,2,1,1,1241,1884,
scooby_state_59cdcf|17|1 127,54,0,0,2,0,1,0,0,1,0,0,1698,0,0,1883,
scooby_state_59cdcb|19|1 1877,0,0,0,1,0,0,0,0,0,1,0,0,0,0,1879,
scooby_state_59cdcf|47|1 194,95,1,2,0,1,0,1,2,0,0,0,1580,1,0,1877,
scooby_state_59cdcb|30|1 1874,0,0,1,0,0,0,0,0,0,0,1,0,0,0,1876,
scooby_state_59cd8d|22|-4 1112,661,25,1,0,9,5,2,0,0,2,0,1,1,57,1876,
scooby_state_59cdcb|25|1 1870,0,1,0,0,0,0,0,0,0,2,0,0,0,0,1873,
scooby_state_59cdee|7|1 636,1,4,7,1,3,1,2,0,3,1,0,1,1,1208,1869,
scooby_state_59cdcf|20|1 129,54,0,0,0,1,0,1,0,0,1,0,1681,0,0,1867,
scooby_state_59d4e0|49|1 1418,119,35,27,4,15,1,4,1,1,3,5,4,3,226,1866,
scooby_state_59cdcb|1|1 1857,0,0,0,0,0,0,1,0,0,0,0,1,0,1,1860,
scooby_state_59cde2|57|0 1834,1,2,2,0,0,1,2,0,0,1,0,5,1,1,1850,
scooby_state_59d4e0|37|1 1345,238,30,27,0,8,0,3,0,3,1,5,6,2,177,1845,
scooby_state_59cdee|19|1 614,0,4,6,0,1,3,0,0,0,0,3,1,6,1206,1844,
scooby_state_59cd8d|30|-4 1318,459,20,0,0,4,1,0,2,1,0,0,7,0,30,1842,
scooby_state_59cd8d|13|-4 1075,732,4,2,1,1,3,0,0,0,0,0,2,0,20,1840,
scooby_state_59cdbf|29|0 1838,0,1,1,0,0,0,0,0,0,0,0,0,0,0,1840,
scooby_state_59cdbf|35|0 1830,0,0,2,0,0,1,0,2,0,0,0,1,1,1,1838,
scooby_state_59d4e0|15|1 1477,170,36,12,0,7,3,5,3,3,0,2,4,3,113,1838,
scooby_state_59cdbf|39|0 1829,0,1,0,0,0,0,0,0,1,1,0,0,0,0,1832,
scooby_state_59cdcb|58|1 1831,0,0,0,0,0,0,0,1,0,0,0,0,0,0,1832,
scooby_state_59cd8d|5|0 1745,67,1,1,0,0,0,2,0,1,1,3,2,0,1,1824,
scooby_state_59cdcb|6|1 1814,0,0,0,0,0,0,0,0,0,0,1,1,0,0,1816,
scooby_state_59d4d1|3|0 1697,13,5,21,0,3,4,3,1,1,1,18,0,7,36,1810,
scooby_state_59cde2|34|0 1789,3,1,4,0,0,0,0,1,0,1,1,1,3,4,1808,
scooby_state_59cdee|41|1 658,1,4,10,2,0,2,0,0,2,0,1,0,3,1125,1808,
scooby_state_59cdee|56|1 646,2,3,6,1,1,2,1,1,2,0,1,1,3,1136,1806,
scooby_state_59cdee|42|1 606,0,6,9,1,1,1,1,2,2,1,2,2,6,1164,1804,
scooby_state_59cdcb|18|1 1802,0,0,0,0,0,0,0,0,0,0,0,0,0,1,1803,
scooby_state_59cdcb|38|1 1799,1,0,0,0,0,0,0,0,0,0,0,1,1,0,1802,
scooby_state_59cde2|33|0 1794,1,0,0,0,0,0,0,1,1,0,1,1,0,1,1800,
scooby_state_59cd8d|35|-4 1018,733,11,0,0,5,1,0,2,0,1,0,1,0,27,1799,
scooby_state_59cdcf|12|1 169,41,0,0,1,1,0,0,0,3,0,1,1583,0,0,1799,
scooby_state_59cdcf|23|1 196,82,3,3,1,1,0,1,0,0,0,0,1509,0,1,1797,
scooby_state_59cdcb|41|1 1794,0,0,0,0,0,0,0,0,1,0,0,0,0,0,1795,
scooby_state_59cdbf|21|0 1792,0,0,0,1,0,1,0,0,0,0,1,0,0,0,1795,
scooby_state_59cdcb|40|1 1793,0,0,0,0,0,0,1,0,0,0,0,0,0,0,1794,
scooby_state_59cdbf|30|0 1783,0,0,0,0,0,0,0,0,1,0,0,0,0,0,1784,
scooby_state_59cdbf|3|0 1779,0,0,0,0,0,0,0,0,0,0,0,0,1,0,1780,
scooby_state_59cd8d|23|-4 1270,471,8,0,0,5,0,0,0,0,1,0,3,1,20,1779,
scooby_state_59cdee|58|1 578,3,4,11,1,0,1,2,2,1,0,4,2,3,1165,1777,
scooby_state_59cdcf|34|1 160,64,0,0,1,0,1,0,1,2,2,1,1541,0,2,1775,
scooby_state_59cde2|49|0 1752,2,3,5,0,0,2,1,2,0,0,1,1,2,3,1774,
scooby_state_59cdbf|54|0 1767,0,0,1,0,0,0,0,1,0,2,1,0,0,0,1772,
scooby_state_59cd8d|12|-4 1105,627,8,2,3,1,0,0,0,1,1,0,1,0,19,1768,
scooby_state_59cdcf|8|1 266,40,1,0,0,0,0,0,4,1,1,1,1448,1,0,1763,
scooby_state_59cdb0|60|1 1021,0,12,4,1,3,1,0,1,2,0,10,0,0,701,1756,
scooby_state_59cde2|31|0 1745,1,0,0,1,0,1,0,1,1,2,0,0,0,1,1753,
scooby_state_59cde2|24|0 1730,3,0,0,4,0,1,1,0,1,1,1,7,2,1,1752,
scooby_state_59cdee|45|1 608,2,5,2,0,1,0,2,0,0,0,0,2,4,1124,1750,
scooby_state_59cdee|14|1 565,2,0,10,1,1,1,0,0,1,1,1,1,2,1164,1750,
scooby_state_59cdcb|33|1 1745,0,1,0,2,0,0,0,0,0,0,1,0,0,0,1749,
scooby_state_59cdcf|53|1 179,72,1,1,1,0,1,0,4,0,0,0,1487,0,1,1747,
scooby_state_59cdcf|1|1 163,97,2,1,0,1,0,1,1,0,0,0,1478,1,1,1746,
scooby_state_59cdee|63|1 576,2,1,10,1,1,0,1,1,2,2,2,0,4,1142,1745,
scooby_state_59cd8d|52|0 1669,66,1,0,0,0,1,1,0,0,1,0,0,0,5,1744,
scooby_state_59cde2|15|0 1715,3,1,7,0,0,1,1,0,1,1,5,5,1,1,1742,
scooby_state_59cdcb|53|1 1736,0,0,0,0,0,1,0,0,0,0,0,0,0,0,1737,
scooby_state_59cdcb|26|1 1734,0,0,0,1,0,0,0,0,0,0,0,0,0,0,1735,
scooby_state_59cdbf|8|0 1733,0,0,0,0,0,0,0,0,0,0,0,0,2,0,1735,
scooby_state_59d4d1|0|0 1702,0,2,2,5,3,1,2,2,1,2,1,2,4,4,1733,
scooby_state_59cdcb|50|1 1729,0,0,0,0,1,0,0,0,1,0,0,1,1,0,1733,
scooby_state_59cdee|36|1 616,0,3,2,1,0,1,0,1,6,1,1,3,10,1085,1730,
scooby_state_59cdbf|13|1 1724,0,0,1,0,0,2,0,0,0,0,0,0,0,0,1727,
scooby_state_59cdcb|46|1 1724,0,0,0,1,0,0,0,0,0,0,0,0,0,0,1725,
scooby_state_59cdbf|51|0 1721,0,0,1,0,0,0,1,0,0,0,0,0,0,0,1723,
scooby_state_59cdcb|12|1 1721,0,0,0,0,1,0,0,0,0,0,0,0,0,0,1722,
scooby_state_59cd8d|16|-4 1164,528,4,0,0,1,0,0,1,0,0,0,1,0,23,1722,
scooby_state_59cd8d|4|-4 1022,635,11,0,0,4,3,0,0,0,0,0,1,0,45,1721,
scooby_state_59cdcf|31|1 206,79,0,1,1,0,0,1,0,2,0,0,1430,1,0,1721,
scooby_state_59cdcf|30|1 245,55,7,3,0,1,0,0,0,1,0,2,1399,0,1,1714,
scooby_state_59cde2|13|0 1699,0,2,5,0,0,1,1,0,0,0,0,1,3,1,1713,
scooby_state_59d4d1|6|0 1608,9,5,6,1,0,4,2,2,3,4,22,1,8,32,1707,
scooby_state_59cde2|38|0 1694,1,1,2,1,1,1,0,1,0,0,0,1,1,0,1704,
scooby_state_59cde2|50|0 1693,0,2,4,0,0,1,0,0,0,0,0,0,0,1,1701,
scooby_state_59cde2|26|0 1696,0,0,0,1,0,0,1,0,0,1,0,1,0,0,1700,
scooby_state_59cdcf|48|1 167,41,0,1,1,1,2,0,1,0,1,0,1482,1,1,1699,
scooby_state_59cdbf|22|0 1696,1,0,1,0,0,0,0,0,0,0,0,0,0,0,1698,
scooby_state_59cdcf|41|1 114,79,0,3,0,1,0,0,0,0,0,1,1500,0,0,1698,
scooby_state_59cdcb|52|1 1694,0,0,0,0,1,1,0,0,0,0,1,0,0,1,1698,
scooby_state_59cde2|36|0 1643,3,4,6,0,2,4,0,0,1,0,24,4,1,5,1697,
scooby_state_59cdcb|4|1 1695,0,0,0,0,0,0,0,0,0,0,0,0,0,0,1695,
scooby_state_59cdcb|7|1 1683,1,2,0,0,2,0,0,0,0,0,0,0,0,0,1688,
scooby_state_59cd8d|40|-4 1179,475,5,2,3,2,0,0,0,0,0,0,0,0,18,1684,
scooby_state_59cde2|41|0 1657,0,1,9,1,2,1,1,0,1,1,6,1,1,1,1683,
scooby_state_59cdcf|36|1 173,52,7,2,0,0,0,1,2,1,0,1,1442,0,2,1683,
scooby_state_59cd8d|38|-4 1040,605,4,1,1,2,0,2,0,1,0,1,1,1,22,1681,
scooby_state_59d4e0|47|1 1359,139,25,15,1,6,3,5,2,2,0,3,5,4,112,1681,
scooby_state_59cdcb|43|1 1680,0,0,0,0,0,0,1,0,0,0,0,0,0,0,1681,
scooby_state_59cdcb|36|1 1674,1,0,0,0,1,0,1,0,0,2,0,0,1,0,1680,
scooby_state_59cdcf|62|1 164,45,5,3,0,1,2,0,1,0,1,0,1453,1,3,1679,
scooby_state_59cdee|44|1 558,0,7,12,0,1,0,1,3,2,1,2,1,4,1084,1676,
scooby_state_59cdcf|60|1 140,53,0,0,0,0,0,0,2,1,0,0,1476,1,0,1673,
scooby_state_59cdee|62|1 573,1,12,18,0,2,3,0,0,7,0,2,0,0,1053,1671,
scooby_state_59cdcf|61|1 178,45,2,0,1,0,1,1,0,0,2,0,1440,0,1,1671,
scooby_state_59cde2|55|0 1649,3,2,7,2,0,1,2,0,1,2,0,2,0,0,1671,
scooby_state_59cdcb|44|1 1662,1,0,0,0,0,1,1,0,0,0,0,1,0,0,1666,
scooby_state_59d4e0|35|1 1114,329,53,30,2,2,0,9,0,2,0,0,4,0,118,1663,
scooby_state_59cdcf|29|-1 1,1,0,2,0,1,0,0,0,0,0,0,1657,0,0,1662,
scooby_state_59cdee|27|1 555,0,4,10,2,0,2,0,0,2,3,1,0,4,1079,1662,
scooby_state_59cdbf|34|0 1657,1,0,0,0,2,0,1,0,0,0,0,0,0,0,1661,
scooby_state_59cd8d|56|0 1562,87,4,0,0,0,1,0,1,0,1,0,0,0,5,1661,
scooby_state_59cd8d|33|0 1467,183,0,0,2,1,0,0,1,1,2,0,0,0,3,1660,
scooby_state_59cdcf|37|-1 1,3,1,0,1,1,1,0,0,0,0,0,1649,0,1,1658,
scooby_state_59cdcf|43|1 100,35,1,1,0,2,2,1,1,1,1,1,1511,1,0,1658,
scooby_state_59cdcf|38|1 138,46,3,4,1,1,1,1,1,0,1,0,1458,1,0,1656,
scooby_state_59cd8d|59|0 1573,74,0,1,0,0,2,0,0,1,0,0,0,1,2,1654,
scooby_state_59cdee|16|1 543,1,4,16,2,2,3,1,1,6,0,2,0,5,1065,1651,
scooby_state_4cd681|2|0 1578,3,0,0,5,0,3,6,9,4,3,0,8,6,25,1650,
scooby_state_59cde2|12|0 1631,1,2,3,1,2,0,1,0,0,1,0,2,0,1,1645,
scooby_state_59cdee|60|1 556,0,1,7,1,1,1,2,1,4,0,4,1,5,1057,1641,
scooby_state_59d4d1|62|0 1598,0,2,3,4,1,1,2,1,0,2,5,2,8,10,1639,
scooby_state_59cdee|26|1 540,2,4,10,1,1,0,2,0,3,2,2,1,3,1064,1635,
scooby_state_59cdbf|41|0 1625,0,0,1,0,1,0,0,0,0,1,1,0,2,0,1631,
scooby_state_59cdcf|7|1 121,31,0,0,3,0,0,1,0,0,0,1,1470,0,0,1627,
scooby_state_59cdcb|62|1 1626,0,0,0,1,0,0,0,0,0,0,0,0,0,0,1627,
scooby_state_59cdee|6|1 535,1,4,6,0,4,1,0,0,1,0,2,2,5,1065,1626,
scooby_state_59cdbf|53|0 1619,0,1,0,0,2,0,0,0,0,0,0,0,0,0,1622,
scooby_state_59cdbf|23|0 1618,0,0,0,1,0,0,0,0,1,0,0,1,1,0,1622,
scooby_state_4c3be0|47|0 1471,0,0,2,0,0,0,0,0,0,0,1,0,142,0,1616,
scooby_state_59cdcf|5|1 121,38,1,1,0,3,2,0,0,0,1,0,1446,1,1,1615,
scooby_state_59cdbf|10|0 1599,1,0,0,0,0,1,0,0,0,0,0,1,0,0,1602,
scooby_state_59cdee|20|1 533,0,1,5,1,4,0,0,1,1,1,2,1,2,1050,1602,
scooby_state_59cdcf|28|1 143,60,0,0,0,0,1,0,1,1,0,0,1393,1,1,1601,
scooby_state_59d4e0|50|1 1040,201,21,60,2,19,1,2,4,4,1,2,10,6,222,1595,
scooby_state_59d4e0|38|1 977,292,41,49,1,19,1,4,0,2,0,3,8,8,186,1591,
scooby_state_59cdbf|61|0 1584,0,0,0,0,1,0,1,1,0,0,0,1,0,0,1588,
scooby_state_59cdcf|4|1 115,40,2,0,0,1,0,1,0,0,0,0,1428,0,0,1587,
scooby_state_59cde2|44|0 1534,2,3,11,1,1,4,2,2,1,1,17,3,0,4,1586,
scooby_state_59cd8d|4|0 1415,158,0,1,0,0,0,0,1,0,0,1,2,1,3,1582,
scooby_state_59d4e0|10|1 1086,212,32,47,3,21,2,2,2,2,1,1,7,4,160,1582,
scooby_state_59cdee|48|1 588,0,6,11,1,0,0,0,0,3,0,3,3,0,967,1582,
scooby_state_59d4d1|13|0 1489,5,3,14,4,3,3,6,2,0,1,19,1,2,29,1581,
scooby_state_59cdcf|21|1 151,33,2,0,2,0,2,1,1,1,0,0,1382,0,0,1575,
scooby_state_59cdee|5|1 561,0,5,9,1,1,1,0,1,4,1,0,0,9,981,1574,
scooby_state_59cdee|30|1 495,0,2,8,0,0,2,2,1,2,0,4,2,3,1053,1574,
scooby_state_59d4d1|45|0 1502,4,5,11,2,2,1,2,1,0,4,15,1,6,17,1573,
scooby_state_59cd8d|60|0 1501,66,0,0,0,0,1,0,0,0,0,2,0,0,2,1572,
scooby_state_59cdcf|13|1 190,61,0,0,2,0,0,1,0,0,0,1,1315,0,2,1572,
scooby_state_4bc35d|5|-1 1118,207,125,26,65,1,0,5,1,1,3,7,1,2,5,1567,
scooby_state_59cdcf|2|1 152,49,0,1,0,1,1,0,1,0,0,0,1360,0,0,1565,
scooby_state_59d4e0|43|1 1043,295,34,24,0,4,2,2,1,1,2,1,5,2,148,1564,
scooby_state_59cde2|58|0 1547,2,4,5,0,0,2,0,1,1,1,0,0,0,1,1564,
scooby_state_59cdcb|9|1 1557,1,0,0,0,0,0,0,0,0,1,0,0,0,0,1559,
scooby_state_59cdcf|49|1 126,38,3,1,1,2,0,0,1,1,0,0,1384,0,1,1558,
scooby_state_59cdee|57|1 528,0,1,0,2,3,2,0,2,1,1,2,0,4,1008,1554,
scooby_state_4c6720|28|0 67,1386,0,0,0,94,0,0,0,0,0,0,0,0,0,1547,
scooby_state_59cdee|15|1 513,3,2,4,3,2,0,0,3,0,1,0,3,4,1008,1546,
scooby_state_49692f|2|0 1420,1,1,97,1,5,0,1,0,1,2,13,0,1,3,1546,
scooby_state_59cdcf|1|-1 2,5,1,0,0,1,0,0,0,1,0,0,1532,1,0,1543,
scooby_state_59d4e0|14|1 1233,90,22,20,0,9,5,3,3,5,3,6,1,4,132,1536,
scooby_state_59cdcf|13|-1 1,0,0,0,0,1,0,1,0,0,0,0,1529,0,0,1532,
scooby_state_59cdee|17|1 524,0,6,16,1,0,0,0,0,5,2,2,2,8,964,1530,
scooby_state_59d4d1|46|0 1434,5,9,22,1,1,1,1,2,4,1,11,1,7,28,1528,
scooby_state_59cdcf|29|1 111,58,3,0,0,1,0,0,0,0,1,1,1350,1,2,1528,
scooby_state_59cdbf|60|0 1524,0,0,0,0,0,0,0,0,0,0,1,0,0,0,1525,
scooby_state_59cdcf|35|1 131,40,0,2,0,0,0,0,0,0,0,0,1350,0,1,1524,
scooby_state_59d4e0|9|1 1173,105,26,7,3,7,1,5,0,3,1,1,6,2,182,1522,
scooby_state_59cdcb|57|1 1518,0,0,0,1,0,0,0,0,0,0,0,0,1,1,1521,
scooby_state_5ffee7|5|0 1489,0,0,0,0,0,0,0,0,0,19,1,11,0,0,1520,
scooby_state_59cd8d|62|0 1380,120,2,0,3,0,0,1,1,0,1,1,1,3,6,1519,
scooby_state_59cdcf|55|1 216,100,4,1,0,0,1,0,1,0,1,1,1191,0,2,1518,
scooby_state_59cdcf|18|-1 1,1,0,1,0,1,0,1,0,0,0,0,1510,2,0,1517,
scooby_state_59d4d1|59|0 1408,12,3,21,2,0,2,5,3,2,2,24,4,7,21,1516,
scooby_state_59cdbf|16|0 1513,0,0,1,0,0,1,0,0,0,0,0,0,0,1,1516,
scooby_state_59cdee|53|1 513,1,3,7,1,1,1,1,0,1,1,0,2,3,978,1513,
scooby_state_59cdbf|55|0 1509,0,0,0,0,1,0,0,0,0,1,1,0,0,0,1512,
scooby_state_59d4d1|63|0 1451,5,3,4,4,3,2,2,3,1,1,11,1,5,16,1512,
scooby_state_59cdee|22|1 477,0,3,7,1,0,1,2,2,1,0,0,1,3,1012,1510,
scooby_state_59d4e0|30|1 984,243,25,16,0,9,1,6,1,4,0,7,6,6,202,1510,
scooby_state_59cdcf|51|1 117,75,2,2,0,1,0,0,0,0,0,1,1308,2,0,1508,
scooby_state_59cdcb|56|1 1506,0,0,0,0,0,0,0,0,1,0,0,0,0,0,1507,
scooby_state_59cdcf|15|1 162,41,0,1,0,0,0,0,1,0,0,0,1299,1,0,1505,
scooby_state_59cdbf|50|0 1500,0,0,0,1,1,0,0,1,0,0,0,0,1,0,1504,
scooby_state_59cdee|37|1 483,1,3,8,1,1,2,2,1,1,2,3,1,5,989,1503,
scooby_state_59cde2|16|0 1464,4,5,6,0,1,0,2,0,2,1,6,4,1,7,1503,
scooby_state_5ffeef|6|1 44,308,29,72,43,0,34,35,278,144,66,154,137,94,54,1492,
scooby_state_59cdbf|32|0 1486,1,1,0,1,0,0,0,0,0,0,0,0,0,0,1489,
scooby_state_59cdcf|39|-1 0,6,0,0,0,1,0,0,0,0,2,0,1479,0,1,1489,
scooby_state_59cdcf|37|1 200,57,4,2,0,2,0,1,0,1,0,0,1218,0,0,1485,
scooby_state_59cdbf|44|0 1483,0,0,0,0,2,0,0,0,0,0,0,0,0,0,1485,
scooby_state_59d4e0|25|1 1167,190,16,16,2,6,0,5,0,2,1,3,1,1,72,1482,
scooby_state_59cdbf|59|0 1472,0,0,0,0,0,0,0,0,1,0,2,0,1,0,1476,
scooby_state_7b50e4|15|0 697,776,2,0,0,0,0,1,0,0,0,0,0,0,0,1476,
scooby_state_59cdcb|37|1 1474,0,0,0,0,0,0,0,0,0,1,0,1,0,0,1476,
scooby_state_59cde2|32|0 1454,3,4,6,1,0,0,0,0,0,0,0,2,0,0,1470,
scooby_state_59d4e0|13|1 1061,161,25,16,4,12,2,2,4,4,2,4,8,3,161,1469,
scooby_state_59d4e0|45|1 971,267,28,37,2,10,1,4,3,1,0,2,9,3,128,1466,
scooby_state_59cd8d|27|0 1404,48,1,1,0,1,1,1,1,0,0,2,0,2,4,1466,
scooby_state_59d4e0|5|1 929,222,17,32,0,5,4,3,4,4,0,1,6,2,237,1466,
scooby_state_59d4e0|31|1 1025,190,31,21,1,5,1,7,2,2,2,3,8,2,166,1466,
scooby_state_59cdbf|58|0 1464,0,0,0,0,1,0,0,0,0,0,1,0,0,0,1466,
scooby_state_59cdcf|30|-1 0,2,0,0,1,0,0,0,1,0,1,1,1456,0,1,1463,
scooby_state_59cd8d|42|0 1367,90,0,0,1,1,0,0,1,0,0,0,1,0,1,1462,
scooby_state_59cdee|2|1 550,0,7,12,0,0,1,1,1,1,2,1,2,0,884,1462,
scooby_state_59cdcf|11|-1 0,1,1,0,0,1,0,0,0,1,0,0,1450,0,1,1455,
scooby_state_4c3c02|48|1 1296,117,0,0,0,37,0,0,0,0,0,0,0,1,0,1451,
scooby_state_59cdcf|24|1 100,18,0,0,0,0,0,0,0,0,0,2,1330,0,1,1451,
scooby_state_59cd8d|37|0 1357,74,0,0,2,1,0,1,1,0,0,1,1,2,8,1448,
scooby_state_59cdcf|16|-1 0,4,0,1,0,2,1,0,1,1,0,0,1434,0,0,1444,
scooby_state_59cd8d|45|0 1318,112,1,2,1,0,1,2,1,1,0,0,0,0,4,1443,
scooby_state_59d4e0|20|1 957,189,37,13,0,12,2,4,0,5,2,3,8,4,207,1443,
scooby_state_59d4e0|22|1 1074,179,21,20,0,9,2,2,1,2,1,3,2,3,118,1437,
scooby_state_59cdcf|59|1 159,39,2,4,0,1,1,0,1,3,0,0,1223,0,1,1434,
scooby_state_59d4e0|46|1 1082,127,11,20,1,8,1,7,1,1,1,5,7,5,156,1433,
scooby_state_59cd8d|50|0 1263,165,0,0,0,0,1,1,0,0,0,0,0,1,2,1433,
scooby_state_59cdbf|36|0 1430,0,0,0,1,0,0,0,0,0,0,0,0,0,0,1431,
scooby_state_59d4e0|21|1 1129,129,30,19,0,4,2,3,2,3,0,1,2,1,106,1431,
scooby_state_59cdcf|25|1 223,50,2,1,1,0,0,1,3,1,1,1,1142,2,2,1430,
scooby_state_59cdf2|38|2 40,639,1,0,2,1,0,0,0,0,1,744,1,0,0,1429,
scooby_state_59cd8d|51|0 1341,75,0,1,1,0,1,0,1,1,0,1,1,1,4,1428,
scooby_state_59cdbf|9|0 1423,0,0,0,0,0,0,0,0,0,0,1,1,0,0,1425,
scooby_state_59cdbf|56|0 1422,0,0,0,0,0,0,0,0,1,0,0,0,0,0,1423,
scooby_state_5bf96b|0|0 1327,0,1,0,14,19,0,1,5,1,30,1,0,0,18,1417,
scooby_state_59d4e0|52|1 1094,121,25,22,1,3,0,2,4,1,1,4,1,0,138,1417,
scooby_state_59cdcf|33|1 85,35,2,2,1,0,0,1,0,0,0,0,1287,3,0,1416,
scooby_state_59cd8d|36|0 1275,130,0,1,1,0,1,1,1,1,0,2,0,0,2,1415,
scooby_state_59cdee|13|1 464,1,6,12,1,1,0,3,1,2,1,3,0,7,913,1415,
scooby_state_59d4e0|6|1 1067,128,30,32,1,8,4,2,1,1,3,4,4,0,128,1413,
scooby_state_59d4e0|34|1 1040,162,24,44,1,10,3,1,0,4,1,2,5,4,110,1411,
scooby_state_59cdcf|27|1 120,48,4,1,0,0,0,0,1,0,1,0,1234,1,1,1411,
scooby_state_59cdbf|31|0 1409,0,0,0,0,0,0,0,1,0,0,0,0,0,0,1410,
scooby_state_59cde2|14|0 1403,4,0,0,0,0,1,0,0,0,0,0,1,0,0,1409,
scooby_state_59cdbf|15|0 1406,0,0,0,0,0,0,0,1,0,0,0,0,1,0,1408,
scooby_state_59cdbf|26|0 1404,0,0,0,0,0,2,0,1,0,0,0,0,0,1,1408,
scooby_state_59cdee|43|1 492,0,3,13,3,0,0,2,1,3,0,0,3,2,885,1407,
scooby_state_59cdbf|62|0 1401,1,1,0,1,0,0,0,0,0,0,0,1,0,0,1405,
scooby_state_59cde2|46|0 1339,7,7,13,2,0,4,1,1,0,1,19,5,1,4,1404,
scooby_state_59cdf2|2|2 63,682,0,1,4,0,1,0,0,0,0,646,2,0,2,1401,
scooby_state_59cdcf|3|1 102,72,0,1,0,0,0,0,0,0,0,0,1225,1,0,1401,
scooby_state_59cdcb|14|1 1399,0,0,0,0,0,0,0,0,0,0,0,0,0,0,1399,
scooby_state_59d4d1|15|0 1252,15,4,22,2,2,4,6,0,2,4,41,1,11,32,1398,
scooby_state_59cd8d|17|0 1247,138,0,0,1,1,1,0,2,0,0,1,1,1,3,1396,
scooby_state_59cde2|35|0 1379,2,2,6,0,1,1,0,0,0,0,1,1,2,1,1396,
scooby_state_59cdcf|40|1 192,27,1,0,1,0,0,0,0,0,0,0,1172,0,0,1393,
scooby_state_59cdcf|44|1 199,56,0,0,0,0,0,1,0,1,0,1,1132,1,1,1392,
scooby_state_59d4e0|19|1 975,232,30,13,1,3,2,7,1,1,2,0,1,2,122,1392,
scooby_state_59cdcb|15|1 1387,0,0,0,0,0,0,0,2,1,0,0,0,0,0,1390,
scooby_state_59cd8d|2|0 1296,83,0,1,1,0,1,0,1,0,0,2,0,2,2,1389,
scooby_state_59cd8d|8|0 1319,56,2,0,2,0,1,0,0,0,0,2,1,3,2,1388,
scooby_state_59cdbf|38|0 1376,0,0,1,0,0,0,0,0,1,0,0,0,0,1,1379,
scooby_state_59cdcf|56|-1 1,4,0,0,0,0,2,0,0,1,0,1,1369,0,1,1379,
scooby_state_59cdee|3|1 483,1,4,1,0,0,0,1,0,1,0,2,1,3,881,1378,
scooby_state_59cdbf|27|0 1373,0,0,0,0,1,0,1,0,0,0,0,0,0,0,1375,
scooby_state_59d4e0|2|1 1081,124,18,14,1,9,2,2,3,1,2,3,3,2,109,1374,
scooby_state_59cdf2|17|2 39,550,0,1,0,1,0,0,1,0,0,777,2,0,0,1371,
scooby_state_59cdcf|26|1 169,70,3,0,0,4,0,0,1,0,0,0,1123,1,0,1371,
scooby_state_59d4d1|43|0 1295,4,4,16,1,1,2,2,1,2,1,16,2,4,18,1369,
scooby_state_59cdee|23|1 480,1,2,11,2,3,0,0,0,2,0,0,0,6,861,1368,
scooby_state_59cde2|21|0 1300,5,2,6,0,1,3,0,1,4,3,34,5,0,4,1368,
scooby_state_59cdcb|45|1 1366,0,0,0,0,0,0,0,1,0,0,0,0,1,0,1368,
scooby_state_59cde2|40|0 1344,2,2,6,1,0,0,0,1,0,2,9,0,0,0,1367,
scooby_state_59cd8d|19|0 1266,92,0,0,0,0,0,1,0,1,2,0,1,1,2,1366,
scooby_state_59d4e0|16|1 879,227,37,19,1,6,0,4,1,2,1,2,5,3,175,1362,
scooby_state_59cde2|25|0 1352,0,0,1,2,1,1,1,1,1,0,1,0,0,0,1361,
scooby_state_7b3b03|44|1 478,882,0,0,0,0,0,0,0,0,0,0,0,1,0,1361,
scooby_state_59cdee|54|1 438,2,3,5,2,1,1,1,1,1,1,4,2,2,897,1361,
scooby_state_59cd8d|26|0 1300,50,0,0,1,0,0,0,0,0,1,3,0,2,3,1360,
scooby_state_59d4d1|4|0 1231,19,4,21,1,2,3,7,1,1,6,20,2,4,35,1357,
[...]
scooby_state_4bc2c0|11|1 1,0,0,0,0,0,0,0,0,0,0,0,0,0,0,1,
scooby_state_7b2fc7|27|-18 1,0,0,0,0,0,0,0,0,0,0,0,0,0,0,1,
scooby_state_600288|22|-1 1,0,0,0,0,0,0,0,0,0,0,0,0,0,0,1,
scooby_state_68864c|60|0 0,0,0,1,0,0,0,0,0,0,0,0,0,0,0,1,
scooby_state_59cdb0|48|-8 1,0,0,0,0,0,0,0,0,0,0,0,0,0,0,1,
scooby_state_7b3083|2|1 1,0,0,0,0,0,0,0,0,0,0,0,0,0,0,1,
scooby_state_67fb46|45|1 0,0,0,1,0,0,0,0,0,0,0,0,0,0,0,1,
scooby_state_64d8ea|17|0 1,0,0,0,0,0,0,0,0,0,0,0,0,0,0,1,
scooby_state_7b5749|60|14 0,0,0,0,0,0,0,0,0,0,0,0,1,0,0,1,
scooby_state_7b2fc7|0|-60 1,0,0,0,0,0,0,0,0,0,0,0,0,0,0,1,
scooby_state_59f224|15|-39 1,0,0,0,0,0,0,0,0,0,0,0,0,0,0,1,
scooby_state_7b1472|58|21 1,0,0,0,0,0,0,0,0,0,0,0,0,0,0,1,
scooby_state_7b5749|5|-3 1,0,0,0,0,0,0,0,0,0,0,0,0,0,0,1,
scooby_state_5ffd42|53|1 1,0,0,0,0,0,0,0,0,0,0,0,0,0,0,1,
scooby_state_5ffee7|62|62 1,0,0,0,0,0,0,0,0,0,0,0,0,0,0,1,
scooby_state_4bde1d|16|-39 1,0,0,0,0,0,0,0,0,0,0,0,0,0,0,1,
scooby_state_7b35cf|45|-1 1,0,0,0,0,0,0,0,0,0,0,0,0,0,0,1,
scooby_state_4c0941|6|-11 0,0,0,0,0,1,0,0,0,0,0,0,0,0,0,1,
scooby_state_7b2fc7|33|-20 0,0,0,0,0,0,0,0,0,0,0,0,0,0,1,1,
scooby_state_7b1485|54|20 1,0,0,0,0,0,0,0,0,0,0,0,0,0,0,1,
scooby_state_4f6581|22|1 1,0,0,0,0,0,0,0,0,0,0,0,0,0,0,1,
scooby_state_7b34e8|60|6 0,0,0,0,0,0,0,0,0,0,0,0,0,1,0,1,
scooby_state_5bf960|37|3 1,0,0,0,0,0,0,0,0,0,0,0,0,0,0,1,
scooby_state_4bde1d|62|61 1,0,0,0,0,0,0,0,0,0,0,0,0,0,0,1,
scooby_state_7b2fc7|23|-22 0,0,1,0,0,0,0,0,0,0,0,0,0,0,0,1,
scooby_state_60040f|59|9 1,0,0,0,0,0,0,0,0,0,0,0,0,0,0,1,
scooby_state_7b5749|36|26 0,0,0,0,0,0,0,0,0,0,0,1,0,0,0,1,
scooby_state_5ffa5b|16|1 1,0,0,0,0,0,0,0,0,0,0,0,0,0,0,1,
scooby_state_7b1476|11|1 1,0,0,0,0,0,0,0,0,0,0,0,0,0,0,1,
scooby_state_7b3178|4|0 0,0,0,0,1,0,0,0,0,0,0,0,0,0,0,1,
scooby_state_64c594|53|0 0,0,1,0,0,0,0,0,0,0,0,0,0,0,0,1,
scooby_state_7b5749|44|-7 1,0,0,0,0,0,0,0,0,0,0,0,0,0,0,1,
scooby_state_500d01|52|1 1,0,0,0,0,0,0,0,0,0,0,0,0,0,0,1,
scooby_state_64d917|47|-1 1,0,0,0,0,0,0,0,0,0,0,0,0,0,0,1,
scooby_state_59eb38|17|-39 0,0,0,0,1,0,0,0,0,0,0,0,0,0,0,1,
scooby_state_60040f|54|15 1,0,0,0,0,0,0,0,0,0,0,0,0,0,0,1,
scooby_state_67fb62|9|1 1,0,0,0,0,0,0,0,0,0,0,0,0,0,0,1,
scooby_state_4603c0|34|0 0,0,0,0,0,0,0,0,0,1,0,0,0,0,0,1,
scooby_state_64d93a|31|1 0,0,1,0,0,0,0,0,0,0,0,0,0,0,0,1,
scooby_state_5fff8d|18|4 1,0,0,0,0,0,0,0,0,0,0,0,0,0,0,1,
scooby_state_7b1472|60|43 1,0,0,0,0,0,0,0,0,0,0,0,0,0,0,1,
scooby_state_7b31c0|11|1 0,0,0,1,0,0,0,0,0,0,0,0,0,0,0,1,
scooby_state_500d03|9|1 0,0,0,0,0,0,0,0,0,0,0,0,0,0,1,1,
scooby_state_5ffe83|47|29 1,0,0,0,0,0,0,0,0,0,0,0,0,0,0,1,
scooby_state_60040f|43|6 1,0,0,0,0,0,0,0,0,0,0,0,0,0,0,1,
scooby_state_5ffe83|27|-2 1,0,0,0,0,0,0,0,0,0,0,0,0,0,0,1,
scooby_state_59c9ea|39|-20 1,0,0,0,0,0,0,0,0,0,0,0,0,0,0,1,
scooby_state_7b2fc2|63|1 1,0,0,0,0,0,0,0,0,0,0,0,0,0,0,1,
scooby_state_7b2f60|61|0 1,0,0,0,0,0,0,0,0,0,0,0,0,0,0,1,
scooby_state_600272|36|11 1,0,0,0,0,0,0,0,0,0,0,0,0,0,0,1,
scooby_state_600288|13|-2 1,0,0,0,0,0,0,0,0,0,0,0,0,0,0,1,
scooby_state_59f224|4|-21 1,0,0,0,0,0,0,0,0,0,0,0,0,0,0,1,
scooby_state_59f224|0|-5 1,0,0,0,0,0,0,0,0,0,0,0,0,0,0,1,
scooby_state_5ffef3|61|25 0,1,0,0,0,0,0,0,0,0,0,0,0,0,0,1,
scooby_state_64da39|5|-32 1,0,0,0,0,0,0,0,0,0,0,0,0,0,0,1,
scooby_state_7b3054|51|1 0,1,0,0,0,0,0,0,0,0,0,0,0,0,0,1,
scooby_state_600250|56|1 0,0,1,0,0,0,0,0,0,0,0,0,0,0,0,1,
scooby_state_7b1aff|57|3 1,0,0,0,0,0,0,0,0,0,0,0,0,0,0,1,
scooby_state_60026e|63|1 1,0,0,0,0,0,0,0,0,0,0,0,0,0,0,1,
scooby_state_600ce6|37|0 0,0,0,0,0,0,0,0,0,0,0,0,0,1,0,1,
scooby_state_59cdcf|3|-47 0,0,0,0,0,0,0,0,0,0,0,0,1,0,0,1,
scooby_state_64da2a|9|-33 0,0,0,0,1,0,0,0,0,0,0,0,0,0,0,1,
scooby_state_410e6b|10|-1 0,1,0,0,0,0,0,0,0,0,0,0,0,0,0,1,
scooby_state_59f242|39|0 1,0,0,0,0,0,0,0,0,0,0,0,0,0,0,1,
scooby_state_7b1476|10|1 1,0,0,0,0,0,0,0,0,0,0,0,0,0,0,1,
scooby_state_4be44e|50|16 1,0,0,0,0,0,0,0,0,0,0,0,0,0,0,1,
scooby_state_59cdcf|52|14 0,0,0,0,0,0,0,0,0,0,0,0,1,0,0,1,
scooby_state_5ffa8e|50|-5 0,0,0,0,0,0,0,0,0,0,0,1,0,0,0,1,
scooby_state_600402|46|14 1,0,0,0,0,0,0,0,0,0,0,0,0,0,0,1,
scooby_state_59eb38|63|62 1,0,0,0,0,0,0,0,0,0,0,0,0,0,0,1,
scooby_state_600288|60|-1 1,0,0,0,0,0,0,0,0,0,0,0,0,0,0,1,
scooby_state_688060|1|-41 1,0,0,0,0,0,0,0,0,0,0,0,0,0,0,1,
scooby_state_4a2d3f|23|9 0,0,1,0,0,0,0,0,0,0,0,0,0,0,0,1,
scooby_state_60026e|44|1 1,0,0,0,0,0,0,0,0,0,0,0,0,0,0,1,
scooby_state_7b1aff|51|-9 0,1,0,0,0,0,0,0,0,0,0,0,0,0,0,1,
scooby_state_60040f|16|12 1,0,0,0,0,0,0,0,0,0,0,0,0,0,0,1,
scooby_state_7b5140|5|1 1,0,0,0,0,0,0,0,0,0,0,0,0,0,0,1,
scooby_state_7b2fc7|11|4 0,1,0,0,0,0,0,0,0,0,0,0,0,0,0,1,
scooby_state_68dfa1|52|26 1,0,0,0,0,0,0,0,0,0,0,0,0,0,0,1,
scooby_state_6001f5|60|18 1,0,0,0,0,0,0,0,0,0,0,0,0,0,0,1,
scooby_state_64da39|9|-49 0,0,0,0,0,0,0,1,0,0,0,0,0,0,0,1,
scooby_state_59f242|15|-8 0,0,0,1,0,0,0,0,0,0,0,0,0,0,0,1,
scooby_state_7b2fc7|47|-4 0,0,0,0,0,0,1,0,0,0,0,0,0,0,0,1,
scooby_state_59f242|15|-31 1,0,0,0,0,0,0,0,0,0,0,0,0,0,0,1,
scooby_state_7b1476|36|1 1,0,0,0,0,0,0,0,0,0,0,0,0,0,0,1,
scooby_state_4d076b|2|1 1,0,0,0,0,0,0,0,0,0,0,0,0,0,0,1,
scooby_state_59eb38|0|-42 1,0,0,0,0,0,0,0,0,0,0,0,0,0,0,1,
scooby_state_7b1aff|42|-17 1,0,0,0,0,0,0,0,0,0,0,0,0,0,0,1,
scooby_state_4c20d7|5|-11 1,0,0,0,0,0,0,0,0,0,0,0,0,0,0,1,
scooby_state_7b34e8|54|25 0,0,1,0,0,0,0,0,0,0,0,0,0,0,0,1,
scooby_state_410e5d|15|1 0,0,0,1,0,0,0,0,0,0,0,0,0,0,0,1,
scooby_state_59f242|42|5 0,0,0,0,0,0,0,0,0,0,0,0,1,0,0,1,
scooby_state_7b2fc7|13|-1 1,0,0,0,0,0,0,0,0,0,0,0,0,0,0,1,
scooby_state_59f242|22|5 1,0,0,0,0,0,0,0,0,0,0,0,0,0,0,1,
scooby_state_68dfa1|20|-43 0,1,0,0,0,0,0,0,0,0,0,0,0,0,0,1,
scooby_state_7b2fc7|46|-10 1,0,0,0,0,0,0,0,0,0,0,0,0,0,0,1,
scooby_state_7b2fc7|2|-40 0,0,1,0,0,0,0,0,0,0,0,0,0,0,0,1,
scooby_state_64da01|41|0 0,0,0,0,0,0,0,0,0,0,0,1,0,0,0,1,
scooby_state_4be44e|54|20 1,0,0,0,0,0,0,0,0,0,0,0,0,0,0,1,
scooby_state_7b14d8|61|0 1,0,0,0,0,0,0,0,0,0,0,0,0,0,0,1,
scooby_state_688869|52|0 0,0,0,0,0,0,0,1,0,0,0,0,0,0,0,1,
scooby_state_7b1aff|5|0 1,0,0,0,0,0,0,0,0,0,0,0,0,0,0,1,
scooby_state_7b35cf|37|-4 1,0,0,0,0,0,0,0,0,0,0,0,0,0,0,1,
scooby_state_7b3033|15|11 0,0,0,0,0,0,0,0,0,0,0,0,0,1,0,1,
scooby_state_5c85b0|18|1 0,0,0,0,1,0,0,0,0,0,0,0,0,0,0,1,
scooby_state_59f224|45|25 1,0,0,0,0,0,0,0,0,0,0,0,0,0,0,1,
scooby_state_7b2fc7|6|-2 1,0,0,0,0,0,0,0,0,0,0,0,0,0,0,1,
scooby_state_600265|57|51 1,0,0,0,0,0,0,0,0,0,0,0,0,0,0,1,
scooby_state_7b2fc7|2|-36 1,0,0,0,0,0,0,0,0,0,0,0,0,0,0,1,
scooby_state_5ffef3|0|-27 0,1,0,0,0,0,0,0,0,0,0,0,0,0,0,1,
scooby_state_5c85b0|10|1 0,0,0,0,1,0,0,0,0,0,0,0,0,0,0,1,
scooby_state_64c598|54|-6 1,0,0,0,0,0,0,0,0,0,0,0,0,0,0,1,
scooby_state_59eb2f|36|1 1,0,0,0,0,0,0,0,0,0,0,0,0,0,0,1,
scooby_state_64c591|14|-1 1,0,0,0,0,0,0,0,0,0,0,0,0,0,0,1,
scooby_state_4bde1d|41|-13 1,0,0,0,0,0,0,0,0,0,0,0,0,0,0,1,
scooby_state_5ffa5f|27|1 1,0,0,0,0,0,0,0,0,0,0,0,0,0,0,1,
scooby_state_7b35cf|27|0 1,0,0,0,0,0,0,0,0,0,0,0,0,0,0,1,
scooby_state_600272|0|-4 0,1,0,0,0,0,0,0,0,0,0,0,0,0,0,1,
scooby_state_4c10b3|52|1 1,0,0,0,0,0,0,0,0,0,0,0,0,0,0,1,
scooby_state_5ffef3|19|0 1,0,0,0,0,0,0,0,0,0,0,0,0,0,0,1,
scooby_state_5fff8d|52|15 0,0,0,0,0,0,0,0,0,0,0,1,0,0,0,1,
scooby_state_64d96b|37|0 0,0,0,0,0,0,0,0,0,0,1,0,0,0,0,1,
scooby_state_59f242|20|-42 0,0,1,0,0,0,0,0,0,0,0,0,0,0,0,1,
scooby_state_410e6b|15|1 1,0,0,0,0,0,0,0,0,0,0,0,0,0,0,1,
scooby_state_7b34e8|10|8 1,0,0,0,0,0,0,0,0,0,0,0,0,0,0,1,
scooby_state_7b3033|5|-23 1,0,0,0,0,0,0,0,0,0,0,0,0,0,0,1,
scooby_state_7b34e8|2|2 0,0,0,0,0,0,0,0,0,0,0,0,0,1,0,1,
scooby_state_687ae4|15|-33 0,0,0,0,0,0,0,0,0,0,0,1,0,0,0,1,
scooby_state_7b34e8|16|1 1,0,0,0,0,0,0,0,0,0,0,0,0,0,0,1,
scooby_state_59e804|17|14 0,1,0,0,0,0,0,0,0,0,0,0,0,0,0,1,
scooby_state_5bfe54|37|-3 0,0,1,0,0,0,0,0,0,0,0,0,0,0,0,1,
scooby_state_688b8a|18|2 1,0,0,0,0,0,0,0,0,0,0,0,0,0,0,1,
scooby_state_7b1485|11|2 1,0,0,0,0,0,0,0,0,0,0,0,0,0,0,1,
scooby_state_7b34e8|16|9 1,0,0,0,0,0,0,0,0,0,0,0,0,0,0,1,
scooby_state_64d8ea|26|-1 1,0,0,0,0,0,0,0,0,0,0,0,0,0,0,1,
scooby_state_59eb2f|15|10 1,0,0,0,0,0,0,0,0,0,0,0,0,0,0,1,
scooby_state_5ffed4|44|42 1,0,0,0,0,0,0,0,0,0,0,0,0,0,0,1,
scooby_state_59f242|59|36 0,0,0,1,0,0,0,0,0,0,0,0,0,0,0,1,
scooby_state_59cdcf|50|31 0,0,0,0,0,0,0,0,0,0,0,0,1,0,0,1,
scooby_state_600272|49|10 0,0,0,0,0,0,0,0,0,0,0,0,0,1,0,1,
scooby_state_4da230|8|1 1,0,0,0,0,0,0,0,0,0,0,0,0,0,0,1,
scooby_state_496940|7|-53 0,1,0,0,0,0,0,0,0,0,0,0,0,0,0,1,
scooby_state_688a2a|5|-47 0,1,0,0,0,0,0,0,0,0,0,0,0,0,0,1,
scooby_state_688a2a|0|-55 1,0,0,0,0,0,0,0,0,0,0,0,0,0,0,1,
scooby_state_7b2fc7|7|2 0,1,0,0,0,0,0,0,0,0,0,0,0,0,0,1,
scooby_state_64da0c|2|-1 0,0,1,0,0,0,0,0,0,0,0,0,0,0,0,1,
scooby_state_7b3178|12|12 0,1,0,0,0,0,0,0,0,0,0,0,0,0,0,1,
scooby_state_5010d5|33|33 1,0,0,0,0,0,0,0,0,0,0,0,0,0,0,1,
scooby_state_7b2fc7|26|-5 0,0,0,1,0,0,0,0,0,0,0,0,0,0,0,1,
scooby_state_7b1aff|18|-11 0,0,0,0,0,0,0,1,0,0,0,0,0,0,0,1,
scooby_state_7b3340|13|-15 0,0,0,0,0,0,0,0,0,0,0,0,1,0,0,1,
scooby_state_5ffa8e|54|39 0,0,0,0,0,0,0,0,0,0,1,0,0,0,0,1,
scooby_state_4d07f9|51|-9 1,0,0,0,0,0,0,0,0,0,0,0,0,0,0,1,
scooby_state_59eb38|3|-3 0,1,0,0,0,0,0,0,0,0,0,0,0,0,0,1,
scooby_state_7b2fc7|47|-3 0,1,0,0,0,0,0,0,0,0,0,0,0,0,0,1,
scooby_state_4bde1d|62|62 1,0,0,0,0,0,0,0,0,0,0,0,0,0,0,1,
scooby_state_7b5102|4|1 0,1,0,0,0,0,0,0,0,0,0,0,0,0,0,1,
scooby_state_59f224|56|46 1,0,0,0,0,0,0,0,0,0,0,0,0,0,0,1,
scooby_state_7b3ae8|43|41 1,0,0,0,0,0,0,0,0,0,0,0,0,0,0,1,
scooby_state_600272|34|0 1,0,0,0,0,0,0,0,0,0,0,0,0,0,0,1,
scooby_state_600272|6|-5 0,1,0,0,0,0,0,0,0,0,0,0,0,0,0,1,
scooby_state_59d5d4|57|0 1,0,0,0,0,0,0,0,0,0,0,0,0,0,0,1,
scooby_state_7b1472|9|-49 1,0,0,0,0,0,0,0,0,0,0,0,0,0,0,1,
scooby_state_7b3741|62|1 0,1,0,0,0,0,0,0,0,0,0,0,0,0,0,1,
scooby_state_5d03ac|3|-4 0,0,0,1,0,0,0,0,0,0,0,0,0,0,0,1,
scooby_state_59f224|25|-10 1,0,0,0,0,0,0,0,0,0,0,0,0,0,0,1,
scooby_state_600265|30|0 1,0,0,0,0,0,0,0,0,0,0,0,0,0,0,1,
scooby_state_600265|6|0 1,0,0,0,0,0,0,0,0,0,0,0,0,0,0,1,
scooby_state_7b2fc7|63|12 0,1,0,0,0,0,0,0,0,0,0,0,0,0,0,1,
scooby_state_7b2fc7|57|25 1,0,0,0,0,0,0,0,0,0,0,0,0,0,0,1,
scooby_state_687aa0|42|0 1,0,0,0,0,0,0,0,0,0,0,0,0,0,0,1,
scooby_state_7b2fc7|55|17 1,0,0,0,0,0,0,0,0,0,0,0,0,0,0,1,
scooby_state_5c4f82|62|1 1,0,0,0,0,0,0,0,0,0,0,0,0,0,0,1,
scooby_state_7b14d8|57|15 0,0,1,0,0,0,0,0,0,0,0,0,0,0,0,1,
scooby_state_600255|61|3 1,0,0,0,0,0,0,0,0,0,0,0,0,0,0,1,
scooby_state_7b2fc7|13|-4 1,0,0,0,0,0,0,0,0,0,0,0,0,0,0,1,
scooby_state_500d03|54|1 0,0,0,0,0,0,0,0,0,0,0,0,0,0,1,1,
scooby_state_5bfc3d|10|0 0,0,0,0,0,1,0,0,0,0,0,0,0,0,0,1,
scooby_state_7b149b|58|25 0,0,0,0,0,1,0,0,0,0,0,0,0,0,0,1,
scooby_state_60025d|62|32 0,0,0,0,0,0,0,0,0,0,0,1,0,0,0,1,
scooby_state_59eb38|59|-2 1,0,0,0,0,0,0,0,0,0,0,0,0,0,0,1,
scooby_state_59cdcf|54|12 0,0,0,0,0,0,0,0,0,0,0,0,1,0,0,1,
scooby_state_64c594|58|47 1,0,0,0,0,0,0,0,0,0,0,0,0,0,0,1,
scooby_state_5fff83|60|1 1,0,0,0,0,0,0,0,0,0,0,0,0,0,0,1,
scooby_state_7b2fc7|36|-12 1,0,0,0,0,0,0,0,0,0,0,0,0,0,0,1,
scooby_state_4bde1d|2|-17 0,1,0,0,0,0,0,0,0,0,0,0,0,0,0,1,
scooby_state_7b14d8|28|-19 0,0,1,0,0,0,0,0,0,0,0,0,0,0,0,1,
scooby_state_600265|48|13 1,0,0,0,0,0,0,0,0,0,0,0,0,0,0,1,
scooby_state_60025d|63|1 1,0,0,0,0,0,0,0,0,0,0,0,0,0,0,1,
scooby_state_7b2fc7|28|-4 1,0,0,0,0,0,0,0,0,0,0,0,0,0,0,1,
scooby_state_7b5749|24|13 1,0,0,0,0,0,0,0,0,0,0,0,0,0,0,1,
scooby_state_5bfc3d|3|1 1,0,0,0,0,0,0,0,0,0,0,0,0,0,0,1,
scooby_state_5010bb|0|-54 0,0,0,0,0,0,1,0,0,0,0,0,0,0,0,1,
scooby_state_5fff83|2|-28 0,0,0,0,0,0,0,0,0,0,0,0,1,0,0,1,
scooby_state_4bde1d|2|-1 1,0,0,0,0,0,0,0,0,0,0,0,0,0,0,1,
scooby_state_59eb16|6|0 1,0,0,0,0,0,0,0,0,0,0,0,0,0,0,1,
scooby_state_59f224|63|37 1,0,0,0,0,0,0,0,0,0,0,0,0,0,0,1,
scooby_state_4603c0|54|29 1,0,0,0,0,0,0,0,0,0,0,0,0,0,0,1,
scooby_state_60025d|52|1 1,0,0,0,0,0,0,0,0,0,0,0,0,0,0,1,
scooby_state_64c594|7|-31 1,0,0,0,0,0,0,0,0,0,0,0,0,0,0,1,
scooby_state_5010d5|43|1 1,0,0,0,0,0,0,0,0,0,0,0,0,0,0,1,
scooby_state_59f242|14|1 0,1,0,0,0,0,0,0,0,0,0,0,0,0,0,1,
scooby_state_59f224|45|-11 1,0,0,0,0,0,0,0,0,0,0,0,0,0,0,1,
scooby_state_500d03|26|1 0,0,0,0,0,0,0,1,0,0,0,0,0,0,0,1,
scooby_state_688a2a|0|-52 0,0,0,0,0,0,0,0,0,0,0,0,1,0,0,1,
scooby_state_7b34e8|8|0 0,0,0,0,0,1,0,0,0,0,0,0,0,0,0,1,
scooby_state_5ffef3|18|-42 0,1,0,0,0,0,0,0,0,0,0,0,0,0,0,1,
scooby_state_6001f5|3|1 1,0,0,0,0,0,0,0,0,0,0,0,0,0,0,1,
scooby_state_7b3178|7|1 1,0,0,0,0,0,0,0,0,0,0,0,0,0,0,1,
scooby_state_688a2a|54|42 1,0,0,0,0,0,0,0,0,0,0,0,0,0,0,1,
scooby_state_5ffed4|15|-40 0,0,0,0,0,0,0,0,0,0,0,0,0,1,0,1,
scooby_state_688267|54|2 1,0,0,0,0,0,0,0,0,0,0,0,0,0,0,1,
scooby_state_5ffe83|35|29 1,0,0,0,0,0,0,0,0,0,0,0,0,0,0,1,
scooby_state_7b3033|15|15 1,0,0,0,0,0,0,0,0,0,0,0,0,0,0,1,

scooby_action_0_deg_dist 0,119809,0,0,0,0,0,0,0,0,0,0,0,0,0,0,
scooby_action_-6_deg_dist 0,12464,1,0,0,0,0,0,0,0,0,0,0,0,0,0,
scooby_action_4_deg_dist 0,62058,155,0,15,0,0,0,0,0,0,0,0,0,0,0,
scooby_action_1_deg_dist 0,2155535,260053,0,119978,0,71237,0,0,0,0,0,0,0,0,0,
scooby_action_30_deg_dist 0,8025,0,0,0,0,0,0,0,0,0,0,0,0,0,0,
scooby_action_5_deg_dist 0,52252,251,0,309,0,1160,0,0,0,0,0,0,0,0,0,
scooby_action_3_deg_dist 0,1079258,57554,0,28921,0,3703,0,0,0,0,0,0,0,0,0,
scooby_action_32_deg_dist 0,8089,1,0,0,0,0,0,0,0,0,0,0,0,0,0,
scooby_action_10_deg_dist 0,19757,4,0,0,0,0,0,0,0,0,0,0,0,0,0,
scooby_action_11_deg_dist 0,22745,96,0,210,0,765,0,0,0,0,0,0,0,0,0,
scooby_action_12_deg_dist 0,16797,0,0,0,0,0,0,0,0,0,0,0,0,0,0,
scooby_action_22_deg_dist 0,6689,1,0,0,0,0,0,0,0,0,0,0,0,0,0,
scooby_action_23_deg_dist 0,4880,0,0,0,0,0,0,0,0,0,0,0,0,0,0,
scooby_action_-1_deg_dist 0,60306,9,0,0,0,0,0,0,0,0,0,0,0,0,0,
scooby_action_-3_deg_dist 0,201806,7,0,15,0,40,0,0,0,0,0,0,0,0,0,

scooby_track_called 4374955
scooby_track_same_address 620718
scooby_track_evict 3753981

scooby_reward_demand_called 4374955
scooby_reward_demand_pt_not_found 2794595
scooby_reward_demand_pt_found 1580360
scooby_reward_demand_pt_found_total 1580360
scooby_reward_demand_has_reward 15168
scooby_reward_train_called 2076028
scooby_reward_assign_reward_called 3754039
scooby_reward_no_pref 119802
scooby_reward_incorrect 1956226
scooby_reward_correct_untimely 825323
scooby_reward_correct_timely 739869
scooby_reward_out_of_bounds 112819
scooby_reward_tracker_hit 0

scooby_reward_none_low_bw 119802
scooby_reward_none_high_bw 0
scooby_reward_incorrect_low_bw 1956226
scooby_reward_incorrect_high_bw 0
scooby_reward_correct_untimely_low_bw 825323
scooby_reward_correct_untimely_high_bw 0
scooby_reward_correct_timely_low_bw 739869
scooby_reward_correct_timely_high_bw 0
scooby_reward_out_of_bounds_low_bw 112819
scooby_reward_out_of_bounds_high_bw 0
scooby_reward_tracker_hit_low_bw 0
scooby_reward_tracker_hit_high_bw 0

scooby_reward_1 0,1221489,586153,324469,37037,0,
scooby_reward_3 0,485818,194004,331753,46820,0,
scooby_reward_4 0,31911,11570,4240,2093,0,
scooby_reward_5 0,30740,10334,5196,2618,0,
scooby_reward_10 0,11979,3037,1547,1873,0,
scooby_reward_11 0,12782,4204,1711,2730,0,
scooby_reward_12 0,9705,3034,779,1912,0,
scooby_reward_22 0,3758,548,260,1873,0,
scooby_reward_23 0,2894,102,130,1472,0,
scooby_reward_30 0,3557,720,700,2737,0,
scooby_reward_32 0,3573,932,213,2685,0,
scooby_reward_-1 0,16954,4237,1947,311,0,
scooby_reward_-3 0,113342,4701,66582,7768,0,
scooby_reward_-6 0,7724,1747,342,890,0,
scooby_reward_0 119802,0,0,0,0,0,

scooby_train_called 3753980
scooby_train_compute_reward 2076028

scooby_register_fill_called 2519981
scooby_register_fill_set 2136663
scooby_register_fill_set_total 2136663

scooby_register_prefetch_hit_called 1395728
scooby_register_prefetch_hit_set 1002186
scooby_register_prefetch_hit_set_total 1002186

scooby_pref_issue_scooby 4456492

learning_engine_featurewise.action.called 4374955
learning_engine_featurewise.action.explore 7999
learning_engine_featurewise.action.exploit 4366956
learning_engine_featurewise.action.fallback 213201
learning_engine_featurewise.action.dyn_fallback_saved_bw 0
learning_engine_featurewise.action.dyn_fallback_saved_bw_acc 465188
learning_engine_featurewise.action.index_1_explored 541
learning_engine_featurewise.action.index_1_exploited 2606262
learning_engine_featurewise.action.index_3_explored 538
learning_engine_featurewise.action.index_3_exploited 1168898
learning_engine_featurewise.action.index_4_explored 534
learning_engine_featurewise.action.index_4_exploited 61694
learning_engine_featurewise.action.index_5_explored 504
learning_engine_featurewise.action.index_5_exploited 53468
learning_engine_featurewise.action.index_10_explored 573
learning_engine_featurewise.action.index_10_exploited 19188
learning_engine_featurewise.action.index_11_explored 537
learning_engine_featurewise.action.index_11_exploited 23279
learning_engine_featurewise.action.index_12_explored 550
learning_engine_featurewise.action.index_12_exploited 16247
learning_engine_featurewise.action.index_22_explored 541
learning_engine_featurewise.action.index_22_exploited 6149
learning_engine_featurewise.action.index_23_explored 545
learning_engine_featurewise.action.index_23_exploited 4335
learning_engine_featurewise.action.index_30_explored 536
learning_engine_featurewise.action.index_30_exploited 7489
learning_engine_featurewise.action.index_32_explored 489
learning_engine_featurewise.action.index_32_exploited 7601
learning_engine_featurewise.action.index_-1_explored 538
learning_engine_featurewise.action.index_-1_exploited 59777
learning_engine_featurewise.action.index_-3_explored 523
learning_engine_featurewise.action.index_-3_exploited 201345
learning_engine_featurewise.action.index_-6_explored 518
learning_engine_featurewise.action.index_-6_exploited 11947
learning_engine_featurewise.action.index_0_explored 532
learning_engine_featurewise.action.index_0_exploited 119277
learning_engine_featurewise.learn.called 3753980
learning_engine_featurewise.learn.su_skip_PC 0
learning_engine_featurewise.learn.su_skip_PC_Delta 0

learning_engine_featurewise.q_value_histogram.bucket_0 36417
learning_engine_featurewise.q_value_histogram.bucket_1 41156
learning_engine_featurewise.q_value_histogram.bucket_2 553939
learning_engine_featurewise.q_value_histogram.bucket_3 567498
learning_engine_featurewise.q_value_histogram.bucket_4 1093370
learning_engine_featurewise.q_value_histogram.bucket_5 665432
learning_engine_featurewise.q_value_histogram.bucket_6 1409144
learning_engine_featurewise.q_value_histogram.bucket_7 0

learning_engine_featurewise.consensus.total 4366956
learning_engine_featurewise.consensus.feature_align_PC 3429267
learning_engine_featurewise.consensus.feature_align_PC_ratio 0.79
learning_engine_featurewise.consensus.feature_align_PC_Delta 3493909
learning_engine_featurewise.consensus.feature_align_PC_Delta_ratio 0.80
learning_engine_featurewise.consensus.feature_align_all 2604786
learning_engine_featurewise.consensus.feature_align_all_ratio 0.60

learning_engine_featurewise.feature_PC_min_weight 1000000.00000000
learning_engine_featurewise.feature_PC_max_weight 0.00000000
learning_engine_featurewise.feature_PC_Delta_min_weight 1000000.00000000
learning_engine_featurewise.feature_PC_Delta_max_weight 0.00000000
unique_pcs 1931
unique_pages 11143
unique_trigger_pcs 917
total_bitmaps_seen 0
unique_bitmaps_seen 0

scooby_bw_epochs 1270886
scooby_bw_level_0 845936
scooby_bw_level_1 398229
scooby_bw_level_2 26222
scooby_bw_level_3 499

scooby_ipc_epochs 0
scooby_ipc_level_0 0
scooby_ipc_level_1 0
scooby_ipc_level_2 0
scooby_ipc_level_3 0

scooby_cache_acc_epochs 268908
scooby_cache_acc_level_0 38618
scooby_cache_acc_level_1 34931
scooby_cache_acc_level_2 69817
scooby_cache_acc_level_3 64526
scooby_cache_acc_level_4 30085
scooby_cache_acc_level_5 15534
scooby_cache_acc_level_6 7629
scooby_cache_acc_level_7 3576
scooby_cache_acc_level_8 1509
scooby_cache_acc_level_9 2683

Channel_0_RQ_row_buffer_hit 1583342
Channel_0_RQ_row_buffer_miss 673995
Channel_0_WQ_row_buffer_hit 2173
Channel_0_WQ_row_buffer_miss 16401
Channel_0_WQ_full 0
Channel_0_dbus_congested 921582

avg_congested_cycle 8

DRAM_bw_pochs 1270886
DRAM_bw_level_0 845936
DRAM_bw_level_1 398229
DRAM_bw_level_2 26222
DRAM_bw_level_3 499
