*************************************************
   ChampSim Multicore Out-of-Order Simulator
   Last compiled: Feb  6 2025 20:33:19
*************************************************
parsing config file: /home/wzz/Pythia/config/pythia.ini

trace_0 /home/wzz/Pythia/traces/628.pop2_s-17B.champsimtrace.xz
adding L2C_PREFETCHER: Scooby
Initialize SHIP state
warmup_instructions 40000000
simulation_instructions 100000000
champsim_seed 170
measure_ipc 0
measure_ipc_epoch 1000
measure_dram_bw 1
measure_dram_bw_epoch 256
measure_cache_acc 1
measure_cache_acc_epoch 1024
l1d_perfect 0
l2c_perfect 0
llc_perfect 0
l1d_semi_perfect 0
l2c_semi_perfect 0
llc_semi_perfect 0
semi_perfect_cache_page_buffer_size 64

num_cpus 1
cpu_freq 4000
dram_io_freq 2400
page_size 4096
block_size 64
max_read_per_cycle 8
max_fill_per_cycle 1
dram_channels 1
log2_dram_channels 0
dram_ranks 1
dram_banks 8
dram_rows 65536
dram_columns 128
dram_row_size 8
dram_size 4096
dram_pages 1048576

fetch_width 6
decode_width 6
exec_width 4
lq_width 2
sq_width 2
retire_width 4
scheduler_size 128
branch_mispredict_penalty 20
rob_size 256
lq_size 72
sq_size 56
num_instr_destinations_sparc 4
num_instr_destinations 2
num_instr_sources 4

itlb_set 16
itlb_way 8
itlb_rq_size 16
itlb_wq_size 16
itlb_pq_size 0
itlb_mshr_size 8
itlb_latency 1

dtlb_set 16
dtlb_way 4
dtlb_rq_size 16
dtlb_wq_size 16
dtlb_pq_size 0
dtlb_mshr_size 8
dtlb_latency 1

stlb_set 128
stlb_way 12
stlb_rq_size 32
stlb_wq_size 32
stlb_pq_size 0
stlb_mshr_size 16
stlb_latency 8

l1i_size 32
l1i_set 64
l1i_way 8
l1i_rq_size 64
l1i_wq_size 64
l1i_pq_size 8
l1i_mshr_size 8
l1i_latency 1

l1d_size 32
l1d_set 64
l1d_way 8
l1d_rq_size 64
l1d_wq_size 64
l1d_pq_size 8
l1d_mshr_size 16
l1d_latency 4

l2c_size 256
l2c_set 512
l2c_way 8
l2c_rq_size 32
l2c_wq_size 32
l2c_pq_size 32
l2c_mshr_size 32
l2c_latency 10

llc_size 2048
llc_set 2048
llc_way 16
llc_rq_size 32
llc_wq_size 32
llc_pq_size 32
llc_mshr_size 64
llc_latency 20

dram_channel_width 8
dram_wq_size 64
dram_rq_size 64
tRP 15
tRCD 15
tCAS 12.5
dram_dbus_turn_around_time 30
dram_write_high_wm 56
dram_write_low_wm 48
min_dram_writes_per_switch 16
dram_mtps 2400
dram_dbus_return_time 13

scooby_alpha 0.0065088
scooby_gamma 0.556301
scooby_epsilon 0.00182284
scooby_state_num_bits 10
scooby_max_states 1024
scooby_seed 200
scooby_policy EGreedy
scooby_learning_type SARSA
scooby_actions 1,3,4,5,10,11,12,22,23,30,32,-1,-3,-6,0,
scooby_max_actions 15
scooby_pt_size 256
scooby_st_size 64
scooby_max_pcs 5
scooby_max_offsets 5
scooby_max_deltas 5
scooby_reward_none -4
scooby_reward_incorrect -8
scooby_reward_correct_untimely 12
scooby_reward_correct_timely 20
scooby_brain_zero_init 0
scooby_enable_reward_all 0
scooby_enable_track_multiple 0
scooby_enable_reward_out_of_bounds 1
scooby_reward_out_of_bounds -12
scooby_state_type 1
scooby_state_hash_type 11
scooby_access_debug 0
scooby_print_access_debug 0
scooby_print_access_debug_pc deadbeef
scooby_print_access_debug_pc_count 0
scooby_print_trace 0
scooby_enable_state_action_stats 1
scooby_enable_reward_tracker_hit 0
scooby_reward_tracker_hit -2
scooby_enable_featurewise_engine 1
scooby_pref_degree 1
scooby_enable_dyn_degree 1
scooby_max_to_avg_q_thresholds 0.5,1,2,
scooby_dyn_degrees 1,2,4,4,
scooby_multi_deg_select_type 2
scooby_last_pref_offset_conf_thresholds 1,3,8,
scooby_dyn_degrees_type2 1,2,4,6,
scooby_action_tracker_size 2
scooby_high_bw_thresh 4
scooby_enable_hbw_reward 1
scooby_reward_hbw_correct_timely 20
scooby_reward_hbw_correct_untimely 12
scooby_reward_hbw_incorrect -14
scooby_reward_hbw_none -2
scooby_reward_hbw_out_of_bounds -12
scooby_reward_hbw_tracker_hit -2
scooby_last_pref_offset_conf_thresholds_hbw 1,3,8,
scooby_dyn_degrees_type2_hbw 1,2,4,6,

le_enable_trace 0
le_trace_interval 0
le_trace_file_name 
le_trace_state 0
le_enable_score_plot 0
le_plot_file_name 
le_plot_actions 
le_enable_action_trace 0
le_action_trace_interval 0
le_action_trace_name 
le_enable_action_plot 0

le_featurewise_active_features PC, PC_Delta
le_featurewise_num_tilings 3,3,
le_featurewise_num_tiles 128,128,
le_featurewise_hash_types 2,2,
le_featurewise_enable_tiling_offset 1,1,
le_featurewise_max_q_thresh 0.5
le_featurewise_enable_action_fallback 1
le_featurewise_feature_weights 1,1,
le_featurewise_enable_dynamic_weight 0
le_featurewise_weight_gradient 0.001
le_featurewise_disable_adjust_weight_all_features_align 1
le_featurewise_selective_update 0
le_featurewise_pooling_type 2
le_featurewise_enable_dyn_action_fallback 1
le_featurewise_bw_acc_check_level 1
le_featurewise_acc_thresh 2
le_featurewise_enable_trace 0
le_featurewise_trace_feature_type 0
le_featurewise_trace_feature 
le_featurewise_trace_interval 0
le_featurewise_trace_record_count 0
le_featurewise_trace_file_name 
le_featurewise_enable_score_plot 0
le_featurewise_plot_actions 
le_featurewise_plot_file_name 


Heartbeat CPU  0 instructions:    1000003 cycles:     458556 heartbeat IPC: 2.18077 cumulative IPC: 2.18077 (Simulation time: 0 hr 0 min 4 sec) 
Heartbeat CPU  0 instructions:    2000000 cycles:     914608 heartbeat IPC: 2.19273 cumulative IPC: 2.18673 (Simulation time: 0 hr 0 min 7 sec) 
Heartbeat CPU  0 instructions:    3000003 cycles:    1361226 heartbeat IPC: 2.23906 cumulative IPC: 2.20390 (Simulation time: 0 hr 0 min 11 sec) 
Heartbeat CPU  0 instructions:    4000000 cycles:    1791735 heartbeat IPC: 2.32282 cumulative IPC: 2.23247 (Simulation time: 0 hr 0 min 14 sec) 
Heartbeat CPU  0 instructions:    5000003 cycles:    2243019 heartbeat IPC: 2.21591 cumulative IPC: 2.22914 (Simulation time: 0 hr 0 min 18 sec) 
Heartbeat CPU  0 instructions:    6000001 cycles:    2681677 heartbeat IPC: 2.27968 cumulative IPC: 2.23741 (Simulation time: 0 hr 0 min 21 sec) 
Heartbeat CPU  0 instructions:    7000001 cycles:    3125308 heartbeat IPC: 2.25413 cumulative IPC: 2.23978 (Simulation time: 0 hr 0 min 24 sec) 
Heartbeat CPU  0 instructions:    8000000 cycles:    3568461 heartbeat IPC: 2.25655 cumulative IPC: 2.24186 (Simulation time: 0 hr 0 min 28 sec) 
Heartbeat CPU  0 instructions:    9000003 cycles:    3993747 heartbeat IPC: 2.35137 cumulative IPC: 2.25352 (Simulation time: 0 hr 0 min 32 sec) 
Heartbeat CPU  0 instructions:   10000002 cycles:    4444110 heartbeat IPC: 2.22043 cumulative IPC: 2.25017 (Simulation time: 0 hr 0 min 35 sec) 
Heartbeat CPU  0 instructions:   11000001 cycles:    4881590 heartbeat IPC: 2.28582 cumulative IPC: 2.25336 (Simulation time: 0 hr 0 min 38 sec) 
Heartbeat CPU  0 instructions:   12000000 cycles:    5324432 heartbeat IPC: 2.25814 cumulative IPC: 2.25376 (Simulation time: 0 hr 0 min 42 sec) 
Heartbeat CPU  0 instructions:   13000003 cycles:    5765725 heartbeat IPC: 2.26607 cumulative IPC: 2.25470 (Simulation time: 0 hr 0 min 45 sec) 
Heartbeat CPU  0 instructions:   14000002 cycles:    6189815 heartbeat IPC: 2.35799 cumulative IPC: 2.26178 (Simulation time: 0 hr 0 min 49 sec) 
Heartbeat CPU  0 instructions:   15000002 cycles:    6638004 heartbeat IPC: 2.23120 cumulative IPC: 2.25972 (Simulation time: 0 hr 0 min 53 sec) 
Heartbeat CPU  0 instructions:   16000000 cycles:    7075479 heartbeat IPC: 2.28584 cumulative IPC: 2.26133 (Simulation time: 0 hr 0 min 56 sec) 
Heartbeat CPU  0 instructions:   17000001 cycles:    7518194 heartbeat IPC: 2.25879 cumulative IPC: 2.26118 (Simulation time: 0 hr 0 min 59 sec) 
Heartbeat CPU  0 instructions:   18000001 cycles:    7961382 heartbeat IPC: 2.25638 cumulative IPC: 2.26091 (Simulation time: 0 hr 1 min 3 sec) 
Heartbeat CPU  0 instructions:   19000003 cycles:    8385118 heartbeat IPC: 2.35996 cumulative IPC: 2.26592 (Simulation time: 0 hr 1 min 6 sec) 
Heartbeat CPU  0 instructions:   20000000 cycles:    8837804 heartbeat IPC: 2.20903 cumulative IPC: 2.26301 (Simulation time: 0 hr 1 min 10 sec) 
Heartbeat CPU  0 instructions:   21000000 cycles:    9277097 heartbeat IPC: 2.27639 cumulative IPC: 2.26364 (Simulation time: 0 hr 1 min 13 sec) 
Heartbeat CPU  0 instructions:   22000002 cycles:    9719724 heartbeat IPC: 2.25924 cumulative IPC: 2.26344 (Simulation time: 0 hr 1 min 17 sec) 
Heartbeat CPU  0 instructions:   23000002 cycles:   10160401 heartbeat IPC: 2.26924 cumulative IPC: 2.26369 (Simulation time: 0 hr 1 min 21 sec) 
Heartbeat CPU  0 instructions:   24000000 cycles:   10582529 heartbeat IPC: 2.36894 cumulative IPC: 2.26789 (Simulation time: 0 hr 1 min 24 sec) 
Heartbeat CPU  0 instructions:   25000003 cycles:   11033138 heartbeat IPC: 2.21923 cumulative IPC: 2.26590 (Simulation time: 0 hr 1 min 28 sec) 
Heartbeat CPU  0 instructions:   26000002 cycles:   11469328 heartbeat IPC: 2.29258 cumulative IPC: 2.26692 (Simulation time: 0 hr 1 min 31 sec) 
Heartbeat CPU  0 instructions:   27000000 cycles:   11910298 heartbeat IPC: 2.26772 cumulative IPC: 2.26695 (Simulation time: 0 hr 1 min 34 sec) 
Heartbeat CPU  0 instructions:   28000000 cycles:   12351371 heartbeat IPC: 2.26720 cumulative IPC: 2.26695 (Simulation time: 0 hr 1 min 38 sec) 
Heartbeat CPU  0 instructions:   29000000 cycles:   12775068 heartbeat IPC: 2.36018 cumulative IPC: 2.27005 (Simulation time: 0 hr 1 min 41 sec) 
Heartbeat CPU  0 instructions:   30000002 cycles:   13227531 heartbeat IPC: 2.21013 cumulative IPC: 2.26800 (Simulation time: 0 hr 1 min 45 sec) 
Heartbeat CPU  0 instructions:   31000003 cycles:   13663744 heartbeat IPC: 2.29246 cumulative IPC: 2.26878 (Simulation time: 0 hr 1 min 48 sec) 
Heartbeat CPU  0 instructions:   32000000 cycles:   14104854 heartbeat IPC: 2.26700 cumulative IPC: 2.26872 (Simulation time: 0 hr 1 min 52 sec) 
Heartbeat CPU  0 instructions:   33000000 cycles:   14546040 heartbeat IPC: 2.26662 cumulative IPC: 2.26866 (Simulation time: 0 hr 1 min 56 sec) 
Heartbeat CPU  0 instructions:   34000000 cycles:   14969795 heartbeat IPC: 2.35985 cumulative IPC: 2.27124 (Simulation time: 0 hr 1 min 59 sec) 
Heartbeat CPU  0 instructions:   35000001 cycles:   15421210 heartbeat IPC: 2.21526 cumulative IPC: 2.26960 (Simulation time: 0 hr 2 min 3 sec) 
Heartbeat CPU  0 instructions:   36000000 cycles:   15860241 heartbeat IPC: 2.27774 cumulative IPC: 2.26983 (Simulation time: 0 hr 2 min 6 sec) 
Heartbeat CPU  0 instructions:   37000002 cycles:   16306007 heartbeat IPC: 2.24333 cumulative IPC: 2.26910 (Simulation time: 0 hr 2 min 10 sec) 
Heartbeat CPU  0 instructions:   38000002 cycles:   16753914 heartbeat IPC: 2.23261 cumulative IPC: 2.26813 (Simulation time: 0 hr 2 min 13 sec) 
Heartbeat CPU  0 instructions:   39000002 cycles:   17180711 heartbeat IPC: 2.34303 cumulative IPC: 2.26999 (Simulation time: 0 hr 2 min 17 sec) 
Heartbeat CPU  0 instructions:   40000000 cycles:   17629970 heartbeat IPC: 2.22588 cumulative IPC: 2.26886 (Simulation time: 0 hr 2 min 20 sec) 

Warmup complete CPU  0 instructions:   40000001 cycles:   17629974 (Simulation time: 0 hr 2 min 20 sec) 

Heartbeat CPU  0 instructions:   41000003 cycles:   18467096 heartbeat IPC: 1.19457 cumulative IPC: 1.19457 (Simulation time: 0 hr 2 min 24 sec) 
Heartbeat CPU  0 instructions:   42000001 cycles:   19257879 heartbeat IPC: 1.26457 cumulative IPC: 1.22857 (Simulation time: 0 hr 2 min 29 sec) 
Heartbeat CPU  0 instructions:   43000002 cycles:   20116025 heartbeat IPC: 1.16530 cumulative IPC: 1.20673 (Simulation time: 0 hr 2 min 33 sec) 
Heartbeat CPU  0 instructions:   44000000 cycles:   20941411 heartbeat IPC: 1.21155 cumulative IPC: 1.20793 (Simulation time: 0 hr 2 min 37 sec) 
Heartbeat CPU  0 instructions:   45000002 cycles:   21736821 heartbeat IPC: 1.25722 cumulative IPC: 1.21748 (Simulation time: 0 hr 2 min 41 sec) 
Heartbeat CPU  0 instructions:   46000003 cycles:   22573116 heartbeat IPC: 1.19575 cumulative IPC: 1.21380 (Simulation time: 0 hr 2 min 45 sec) 
Heartbeat CPU  0 instructions:   47000000 cycles:   23364674 heartbeat IPC: 1.26333 cumulative IPC: 1.22064 (Simulation time: 0 hr 2 min 49 sec) 
Heartbeat CPU  0 instructions:   48000000 cycles:   24213447 heartbeat IPC: 1.17817 cumulative IPC: 1.21516 (Simulation time: 0 hr 2 min 54 sec) 
Heartbeat CPU  0 instructions:   49000003 cycles:   25035836 heartbeat IPC: 1.21597 cumulative IPC: 1.21525 (Simulation time: 0 hr 2 min 58 sec) 
Heartbeat CPU  0 instructions:   50000001 cycles:   25821857 heartbeat IPC: 1.27223 cumulative IPC: 1.22072 (Simulation time: 0 hr 3 min 2 sec) 
Heartbeat CPU  0 instructions:   51000000 cycles:   26656259 heartbeat IPC: 1.19846 cumulative IPC: 1.21866 (Simulation time: 0 hr 3 min 6 sec) 
Heartbeat CPU  0 instructions:   52000000 cycles:   27438694 heartbeat IPC: 1.27806 cumulative IPC: 1.22340 (Simulation time: 0 hr 3 min 10 sec) 
Heartbeat CPU  0 instructions:   53000000 cycles:   28289953 heartbeat IPC: 1.17473 cumulative IPC: 1.21951 (Simulation time: 0 hr 3 min 14 sec) 
Heartbeat CPU  0 instructions:   54000003 cycles:   29107731 heartbeat IPC: 1.22283 cumulative IPC: 1.21975 (Simulation time: 0 hr 3 min 18 sec) 
Heartbeat CPU  0 instructions:   55000000 cycles:   29892815 heartbeat IPC: 1.27375 cumulative IPC: 1.22321 (Simulation time: 0 hr 3 min 22 sec) 
Heartbeat CPU  0 instructions:   56000000 cycles:   30715941 heartbeat IPC: 1.21488 cumulative IPC: 1.22268 (Simulation time: 0 hr 3 min 26 sec) 
Heartbeat CPU  0 instructions:   57000002 cycles:   31509062 heartbeat IPC: 1.26084 cumulative IPC: 1.22486 (Simulation time: 0 hr 3 min 31 sec) 
Heartbeat CPU  0 instructions:   58000000 cycles:   32341463 heartbeat IPC: 1.20134 cumulative IPC: 1.22353 (Simulation time: 0 hr 3 min 35 sec) 
Heartbeat CPU  0 instructions:   59000002 cycles:   33159448 heartbeat IPC: 1.22252 cumulative IPC: 1.22348 (Simulation time: 0 hr 3 min 39 sec) 
Heartbeat CPU  0 instructions:   60000000 cycles:   33943353 heartbeat IPC: 1.27566 cumulative IPC: 1.22599 (Simulation time: 0 hr 3 min 43 sec) 
Heartbeat CPU  0 instructions:   61000003 cycles:   34752225 heartbeat IPC: 1.23629 cumulative IPC: 1.22647 (Simulation time: 0 hr 3 min 47 sec) 
Heartbeat CPU  0 instructions:   62000002 cycles:   35540008 heartbeat IPC: 1.26938 cumulative IPC: 1.22836 (Simulation time: 0 hr 3 min 52 sec) 
Heartbeat CPU  0 instructions:   63000002 cycles:   36365957 heartbeat IPC: 1.21073 cumulative IPC: 1.22758 (Simulation time: 0 hr 3 min 56 sec) 
Heartbeat CPU  0 instructions:   64000000 cycles:   37171166 heartbeat IPC: 1.24191 cumulative IPC: 1.22817 (Simulation time: 0 hr 4 min 0 sec) 
Heartbeat CPU  0 instructions:   65000001 cycles:   37953600 heartbeat IPC: 1.27806 cumulative IPC: 1.23010 (Simulation time: 0 hr 4 min 4 sec) 
Heartbeat CPU  0 instructions:   66000000 cycles:   38746007 heartbeat IPC: 1.26198 cumulative IPC: 1.23129 (Simulation time: 0 hr 4 min 9 sec) 
Heartbeat CPU  0 instructions:   67000003 cycles:   39529601 heartbeat IPC: 1.27617 cumulative IPC: 1.23290 (Simulation time: 0 hr 4 min 13 sec) 
Heartbeat CPU  0 instructions:   68000000 cycles:   40349325 heartbeat IPC: 1.21992 cumulative IPC: 1.23243 (Simulation time: 0 hr 4 min 17 sec) 
Heartbeat CPU  0 instructions:   69000003 cycles:   41149701 heartbeat IPC: 1.24942 cumulative IPC: 1.23301 (Simulation time: 0 hr 4 min 21 sec) 
Heartbeat CPU  0 instructions:   70000002 cycles:   41953795 heartbeat IPC: 1.24363 cumulative IPC: 1.23336 (Simulation time: 0 hr 4 min 25 sec) 
Heartbeat CPU  0 instructions:   71000003 cycles:   42678880 heartbeat IPC: 1.37915 cumulative IPC: 1.23758 (Simulation time: 0 hr 4 min 29 sec) 
Heartbeat CPU  0 instructions:   72000000 cycles:   43307675 heartbeat IPC: 1.59034 cumulative IPC: 1.24622 (Simulation time: 0 hr 4 min 32 sec) 
Heartbeat CPU  0 instructions:   73000003 cycles:   43935440 heartbeat IPC: 1.59296 cumulative IPC: 1.25449 (Simulation time: 0 hr 4 min 36 sec) 
Heartbeat CPU  0 instructions:   74000001 cycles:   44566713 heartbeat IPC: 1.58410 cumulative IPC: 1.26222 (Simulation time: 0 hr 4 min 39 sec) 
Heartbeat CPU  0 instructions:   75000002 cycles:   45193924 heartbeat IPC: 1.59436 cumulative IPC: 1.26977 (Simulation time: 0 hr 4 min 42 sec) 
Heartbeat CPU  0 instructions:   76000000 cycles:   45822321 heartbeat IPC: 1.59135 cumulative IPC: 1.27694 (Simulation time: 0 hr 4 min 45 sec) 
Heartbeat CPU  0 instructions:   77000003 cycles:   46450136 heartbeat IPC: 1.59283 cumulative IPC: 1.28382 (Simulation time: 0 hr 4 min 49 sec) 
Heartbeat CPU  0 instructions:   78000000 cycles:   47184021 heartbeat IPC: 1.36261 cumulative IPC: 1.28578 (Simulation time: 0 hr 4 min 53 sec) 
Heartbeat CPU  0 instructions:   79000001 cycles:   48055227 heartbeat IPC: 1.14784 cumulative IPC: 1.28183 (Simulation time: 0 hr 4 min 57 sec) 
Heartbeat CPU  0 instructions:   80000000 cycles:   48954269 heartbeat IPC: 1.11229 cumulative IPC: 1.27696 (Simulation time: 0 hr 5 min 1 sec) 
Heartbeat CPU  0 instructions:   81000000 cycles:   49862088 heartbeat IPC: 1.10154 cumulative IPC: 1.27202 (Simulation time: 0 hr 5 min 4 sec) 
Heartbeat CPU  0 instructions:   82000003 cycles:   50769204 heartbeat IPC: 1.10240 cumulative IPC: 1.26738 (Simulation time: 0 hr 5 min 8 sec) 
Heartbeat CPU  0 instructions:   83000002 cycles:   51626093 heartbeat IPC: 1.16701 cumulative IPC: 1.26485 (Simulation time: 0 hr 5 min 11 sec) 
Heartbeat CPU  0 instructions:   84000000 cycles:   52613593 heartbeat IPC: 1.01266 cumulative IPC: 1.25773 (Simulation time: 0 hr 5 min 15 sec) 
Heartbeat CPU  0 instructions:   85000001 cycles:   53608012 heartbeat IPC: 1.00561 cumulative IPC: 1.25076 (Simulation time: 0 hr 5 min 19 sec) 
Heartbeat CPU  0 instructions:   86000002 cycles:   54611787 heartbeat IPC: 0.99624 cumulative IPC: 1.24385 (Simulation time: 0 hr 5 min 22 sec) 
Heartbeat CPU  0 instructions:   87000001 cycles:   55641856 heartbeat IPC: 0.97081 cumulative IPC: 1.23646 (Simulation time: 0 hr 5 min 26 sec) 
Heartbeat CPU  0 instructions:   88000000 cycles:   56551551 heartbeat IPC: 1.09927 cumulative IPC: 1.23325 (Simulation time: 0 hr 5 min 29 sec) 
Heartbeat CPU  0 instructions:   89000001 cycles:   57372216 heartbeat IPC: 1.21853 cumulative IPC: 1.23295 (Simulation time: 0 hr 5 min 33 sec) 
Heartbeat CPU  0 instructions:   90000002 cycles:   58186808 heartbeat IPC: 1.22761 cumulative IPC: 1.23284 (Simulation time: 0 hr 5 min 36 sec) 
Heartbeat CPU  0 instructions:   91000000 cycles:   59076303 heartbeat IPC: 1.12423 cumulative IPC: 1.23051 (Simulation time: 0 hr 5 min 40 sec) 
Heartbeat CPU  0 instructions:   92000000 cycles:   59890828 heartbeat IPC: 1.22771 cumulative IPC: 1.23045 (Simulation time: 0 hr 5 min 44 sec) 
Heartbeat CPU  0 instructions:   93000000 cycles:   60713543 heartbeat IPC: 1.21549 cumulative IPC: 1.23017 (Simulation time: 0 hr 5 min 47 sec) 
Heartbeat CPU  0 instructions:   94000000 cycles:   61525766 heartbeat IPC: 1.23119 cumulative IPC: 1.23019 (Simulation time: 0 hr 5 min 51 sec) 
Heartbeat CPU  0 instructions:   95000000 cycles:   62532848 heartbeat IPC: 0.99297 cumulative IPC: 1.22487 (Simulation time: 0 hr 5 min 55 sec) 
Heartbeat CPU  0 instructions:   96000000 cycles:   63277822 heartbeat IPC: 1.34233 cumulative IPC: 1.22678 (Simulation time: 0 hr 5 min 59 sec) 
Heartbeat CPU  0 instructions:   97000003 cycles:   63999925 heartbeat IPC: 1.38485 cumulative IPC: 1.22924 (Simulation time: 0 hr 6 min 3 sec) 
Heartbeat CPU  0 instructions:   98000001 cycles:   64762487 heartbeat IPC: 1.31137 cumulative IPC: 1.23057 (Simulation time: 0 hr 6 min 8 sec) 
Heartbeat CPU  0 instructions:   99000000 cycles:   65522868 heartbeat IPC: 1.31513 cumulative IPC: 1.23192 (Simulation time: 0 hr 6 min 11 sec) 
Heartbeat CPU  0 instructions:  100000000 cycles:   66343977 heartbeat IPC: 1.21787 cumulative IPC: 1.23168 (Simulation time: 0 hr 6 min 16 sec) 
Heartbeat CPU  0 instructions:  101000000 cycles:   67159393 heartbeat IPC: 1.22637 cumulative IPC: 1.23159 (Simulation time: 0 hr 6 min 20 sec) 
Heartbeat CPU  0 instructions:  102000001 cycles:   68082591 heartbeat IPC: 1.08319 cumulative IPC: 1.22888 (Simulation time: 0 hr 6 min 24 sec) 
Heartbeat CPU  0 instructions:  103000000 cycles:   68973671 heartbeat IPC: 1.12223 cumulative IPC: 1.22703 (Simulation time: 0 hr 6 min 27 sec) 
Heartbeat CPU  0 instructions:  104000000 cycles:   69943362 heartbeat IPC: 1.03126 cumulative IPC: 1.22340 (Simulation time: 0 hr 6 min 31 sec) 
Heartbeat CPU  0 instructions:  105000000 cycles:   70706212 heartbeat IPC: 1.31087 cumulative IPC: 1.22465 (Simulation time: 0 hr 6 min 35 sec) 
Heartbeat CPU  0 instructions:  106000001 cycles:   71463111 heartbeat IPC: 1.32118 cumulative IPC: 1.22601 (Simulation time: 0 hr 6 min 39 sec) 
Heartbeat CPU  0 instructions:  107000000 cycles:   72238130 heartbeat IPC: 1.29029 cumulative IPC: 1.22692 (Simulation time: 0 hr 6 min 42 sec) 
Heartbeat CPU  0 instructions:  108000000 cycles:   73016563 heartbeat IPC: 1.28463 cumulative IPC: 1.22773 (Simulation time: 0 hr 6 min 46 sec) 
Heartbeat CPU  0 instructions:  109000002 cycles:   73775709 heartbeat IPC: 1.31727 cumulative IPC: 1.22894 (Simulation time: 0 hr 6 min 50 sec) 
Heartbeat CPU  0 instructions:  110000001 cycles:   74556496 heartbeat IPC: 1.28076 cumulative IPC: 1.22966 (Simulation time: 0 hr 6 min 53 sec) 
Heartbeat CPU  0 instructions:  111000000 cycles:   75327650 heartbeat IPC: 1.29676 cumulative IPC: 1.23055 (Simulation time: 0 hr 6 min 57 sec) 
Heartbeat CPU  0 instructions:  112000000 cycles:   76103600 heartbeat IPC: 1.28874 cumulative IPC: 1.23132 (Simulation time: 0 hr 7 min 1 sec) 
Heartbeat CPU  0 instructions:  113000001 cycles:   76880316 heartbeat IPC: 1.28747 cumulative IPC: 1.23206 (Simulation time: 0 hr 7 min 4 sec) 
Heartbeat CPU  0 instructions:  114000000 cycles:   78049989 heartbeat IPC: 0.85494 cumulative IPC: 1.22476 (Simulation time: 0 hr 7 min 9 sec) 
Heartbeat CPU  0 instructions:  115000000 cycles:   79134868 heartbeat IPC: 0.92176 cumulative IPC: 1.21942 (Simulation time: 0 hr 7 min 14 sec) 
Heartbeat CPU  0 instructions:  116000000 cycles:   80103831 heartbeat IPC: 1.03203 cumulative IPC: 1.21651 (Simulation time: 0 hr 7 min 17 sec) 
Heartbeat CPU  0 instructions:  117000001 cycles:   81014861 heartbeat IPC: 1.09766 cumulative IPC: 1.21480 (Simulation time: 0 hr 7 min 20 sec) 
Heartbeat CPU  0 instructions:  118000000 cycles:   82000149 heartbeat IPC: 1.01493 cumulative IPC: 1.21174 (Simulation time: 0 hr 7 min 23 sec) 
Heartbeat CPU  0 instructions:  119000003 cycles:   82979231 heartbeat IPC: 1.02137 cumulative IPC: 1.20889 (Simulation time: 0 hr 7 min 25 sec) 
Heartbeat CPU  0 instructions:  120000000 cycles:   83834890 heartbeat IPC: 1.16869 cumulative IPC: 1.20837 (Simulation time: 0 hr 7 min 28 sec) 
Heartbeat CPU  0 instructions:  121000000 cycles:   84691092 heartbeat IPC: 1.16795 cumulative IPC: 1.20785 (Simulation time: 0 hr 7 min 31 sec) 
Heartbeat CPU  0 instructions:  122000003 cycles:   85794819 heartbeat IPC: 0.90602 cumulative IPC: 1.20297 (Simulation time: 0 hr 7 min 34 sec) 
Heartbeat CPU  0 instructions:  123000000 cycles:   86637399 heartbeat IPC: 1.18683 cumulative IPC: 1.20277 (Simulation time: 0 hr 7 min 38 sec) 
Heartbeat CPU  0 instructions:  124000000 cycles:   87490176 heartbeat IPC: 1.17264 cumulative IPC: 1.20240 (Simulation time: 0 hr 7 min 42 sec) 
Heartbeat CPU  0 instructions:  125000002 cycles:   88341030 heartbeat IPC: 1.17529 cumulative IPC: 1.20208 (Simulation time: 0 hr 7 min 45 sec) 
Heartbeat CPU  0 instructions:  126000001 cycles:   89136419 heartbeat IPC: 1.25725 cumulative IPC: 1.20269 (Simulation time: 0 hr 7 min 49 sec) 
Heartbeat CPU  0 instructions:  127000001 cycles:   90163597 heartbeat IPC: 0.97354 cumulative IPC: 1.19944 (Simulation time: 0 hr 7 min 52 sec) 
Heartbeat CPU  0 instructions:  128000000 cycles:   91080963 heartbeat IPC: 1.09008 cumulative IPC: 1.19808 (Simulation time: 0 hr 7 min 55 sec) 
Heartbeat CPU  0 instructions:  129000002 cycles:   92050580 heartbeat IPC: 1.03134 cumulative IPC: 1.19591 (Simulation time: 0 hr 7 min 59 sec) 
Heartbeat CPU  0 instructions:  130000001 cycles:   93106140 heartbeat IPC: 0.94736 cumulative IPC: 1.19243 (Simulation time: 0 hr 8 min 3 sec) 
Heartbeat CPU  0 instructions:  131000001 cycles:   94182586 heartbeat IPC: 0.92898 cumulative IPC: 1.18872 (Simulation time: 0 hr 8 min 7 sec) 
Heartbeat CPU  0 instructions:  132000000 cycles:   95363700 heartbeat IPC: 0.84666 cumulative IPC: 1.18353 (Simulation time: 0 hr 8 min 11 sec) 
Heartbeat CPU  0 instructions:  133000000 cycles:   97152158 heartbeat IPC: 0.55914 cumulative IPC: 1.16948 (Simulation time: 0 hr 8 min 15 sec) 
Heartbeat CPU  0 instructions:  134000000 cycles:   97861559 heartbeat IPC: 1.40964 cumulative IPC: 1.17161 (Simulation time: 0 hr 8 min 18 sec) 
Heartbeat CPU  0 instructions:  135000003 cycles:   98564809 heartbeat IPC: 1.42197 cumulative IPC: 1.17378 (Simulation time: 0 hr 8 min 20 sec) 
Heartbeat CPU  0 instructions:  136000000 cycles:   99267237 heartbeat IPC: 1.42363 cumulative IPC: 1.17593 (Simulation time: 0 hr 8 min 23 sec) 
Heartbeat CPU  0 instructions:  137000000 cycles:   99969514 heartbeat IPC: 1.42394 cumulative IPC: 1.17805 (Simulation time: 0 hr 8 min 26 sec) 
Heartbeat CPU  0 instructions:  138000001 cycles:  100671581 heartbeat IPC: 1.42437 cumulative IPC: 1.18013 (Simulation time: 0 hr 8 min 28 sec) 
Heartbeat CPU  0 instructions:  139000000 cycles:  101373866 heartbeat IPC: 1.42392 cumulative IPC: 1.18218 (Simulation time: 0 hr 8 min 31 sec) 
Heartbeat CPU  0 instructions:  140000000 cycles:  102076133 heartbeat IPC: 1.42396 cumulative IPC: 1.18419 (Simulation time: 0 hr 8 min 34 sec) 
Finished CPU 0 instructions: 100000000 cycles: 84446167 cumulative IPC: 1.18419 (Simulation time: 0 hr 8 min 34 sec) 

ChampSim completed all CPUs

[ROI Statistics]
Core_0_instructions 100000000
Core_0_cycles 84446167
Core_0_IPC 1.18419

Core_0_branch_prediction_accuracy 97.85788
Core_0_branch_MPKI 3.09532
Core_0_average_ROB_occupancy_at_mispredict 172.43054

Core_0_L1D_total_access 16721274
Core_0_L1D_total_hit 15020120
Core_0_L1D_total_miss 1701154
Core_0_L1D_loads 11775266
Core_0_L1D_load_hit 10729317
Core_0_L1D_load_miss 1045949
Core_0_L1D_RFOs 4946008
Core_0_L1D_RFO_hit 4290803
Core_0_L1D_RFO_miss 655205
Core_0_L1D_prefetches 0
Core_0_L1D_prefetch_hit 0
Core_0_L1D_prefetch_miss 0
Core_0_L1D_writebacks 0
Core_0_L1D_writeback_hit 0
Core_0_L1D_writeback_miss 0
Core_0_L1D_prefetch_requested 0
Core_0_L1D_prefetch_dropped 0
Core_0_L1D_prefetch_issued 0
Core_0_L1D_prefetch_filled 0
Core_0_L1D_prefetch_useful 0
Core_0_L1D_prefetch_useless 0
Core_0_L1D_prefetch_late 0
Core_0_L1D_average_miss_latency 64.24846

Core_0_L1D_rq_access 20378618
Core_0_L1D_rq_forward 0
Core_0_L1D_rq_merged 7970362
Core_0_L1D_rq_to_cache 12406397
Core_0_L1D_rq_full 0

Core_0_L1D_wq_access 6788340
Core_0_L1D_wq_forward 1859
Core_0_L1D_wq_merged 97206
Core_0_L1D_wq_to_cache 6691134
Core_0_L1D_wq_full 1393817

Core_0_L1D_pq_access 0
Core_0_L1D_pq_forward 0
Core_0_L1D_pq_merged 0
Core_0_L1D_pq_to_cache 0
Core_0_L1D_pq_full 0

Core_0_L1D_acc_epochs 99179
Core_0_L1D_acc_level_0 99179
Core_0_L1D_acc_level_1 0
Core_0_L1D_acc_level_2 0
Core_0_L1D_acc_level_3 0
Core_0_L1D_acc_level_4 0
Core_0_L1D_acc_level_5 0
Core_0_L1D_acc_level_6 0
Core_0_L1D_acc_level_7 0
Core_0_L1D_acc_level_8 0
Core_0_L1D_acc_level_9 0

Core_0_L1I_total_access 21743901
Core_0_L1I_total_hit 21706232
Core_0_L1I_total_miss 37669
Core_0_L1I_loads 21743901
Core_0_L1I_load_hit 21706232
Core_0_L1I_load_miss 37669
Core_0_L1I_RFOs 0
Core_0_L1I_RFO_hit 0
Core_0_L1I_RFO_miss 0
Core_0_L1I_prefetches 0
Core_0_L1I_prefetch_hit 0
Core_0_L1I_prefetch_miss 0
Core_0_L1I_writebacks 0
Core_0_L1I_writeback_hit 0
Core_0_L1I_writeback_miss 0
Core_0_L1I_prefetch_requested 0
Core_0_L1I_prefetch_dropped 0
Core_0_L1I_prefetch_issued 0
Core_0_L1I_prefetch_filled 0
Core_0_L1I_prefetch_useful 0
Core_0_L1I_prefetch_useless 0
Core_0_L1I_prefetch_late 0
Core_0_L1I_average_miss_latency 30.81754

Core_0_L1I_rq_access 100000182
Core_0_L1I_rq_forward 0
Core_0_L1I_rq_merged 78207422
Core_0_L1I_rq_to_cache 21792760
Core_0_L1I_rq_full 0

Core_0_L1I_wq_access 0
Core_0_L1I_wq_forward 0
Core_0_L1I_wq_merged 0
Core_0_L1I_wq_to_cache 0
Core_0_L1I_wq_full 0

Core_0_L1I_pq_access 0
Core_0_L1I_pq_forward 0
Core_0_L1I_pq_merged 0
Core_0_L1I_pq_to_cache 0
Core_0_L1I_pq_full 0

Core_0_L1I_acc_epochs 99179
Core_0_L1I_acc_level_0 99179
Core_0_L1I_acc_level_1 0
Core_0_L1I_acc_level_2 0
Core_0_L1I_acc_level_3 0
Core_0_L1I_acc_level_4 0
Core_0_L1I_acc_level_5 0
Core_0_L1I_acc_level_6 0
Core_0_L1I_acc_level_7 0
Core_0_L1I_acc_level_8 0
Core_0_L1I_acc_level_9 0

Core_0_L2C_total_access 6432233
Core_0_L2C_total_hit 5588527
Core_0_L2C_total_miss 843706
Core_0_L2C_loads 1083556
Core_0_L2C_load_hit 979854
Core_0_L2C_load_miss 103702
Core_0_L2C_RFOs 655147
Core_0_L2C_RFO_hit 359494
Core_0_L2C_RFO_miss 295653
Core_0_L2C_prefetches 3894633
Core_0_L2C_prefetch_hit 3450980
Core_0_L2C_prefetch_miss 443653
Core_0_L2C_writebacks 798897
Core_0_L2C_writeback_hit 798199
Core_0_L2C_writeback_miss 698
Core_0_L2C_prefetch_requested 8652691
Core_0_L2C_prefetch_dropped 182013
Core_0_L2C_prefetch_issued 8470678
Core_0_L2C_prefetch_filled 828256
Core_0_L2C_prefetch_useful 695848
Core_0_L2C_prefetch_useless 131806
Core_0_L2C_prefetch_late 44313
Core_0_L2C_average_miss_latency 166.24569

Core_0_L2C_rq_access 1738823
Core_0_L2C_rq_forward 0
Core_0_L2C_rq_merged 0
Core_0_L2C_rq_to_cache 1738703
Core_0_L2C_rq_full 0

Core_0_L2C_wq_access 798897
Core_0_L2C_wq_forward 1040
Core_0_L2C_wq_merged 0
Core_0_L2C_wq_to_cache 798897
Core_0_L2C_wq_full 0

Core_0_L2C_pq_access 8470678
Core_0_L2C_pq_forward 0
Core_0_L2C_pq_merged 948573
Core_0_L2C_pq_to_cache 7521185
Core_0_L2C_pq_full 0

Core_0_L2C_acc_epochs 99179
Core_0_L2C_acc_level_0 47361
Core_0_L2C_acc_level_1 4677
Core_0_L2C_acc_level_2 4015
Core_0_L2C_acc_level_3 3648
Core_0_L2C_acc_level_4 3598
Core_0_L2C_acc_level_5 4347
Core_0_L2C_acc_level_6 4080
Core_0_L2C_acc_level_7 5736
Core_0_L2C_acc_level_8 6209
Core_0_L2C_acc_level_9 15508

Core_0_LLC_total_access 1240715
Core_0_LLC_total_hit 783949
Core_0_LLC_total_miss 456766
Core_0_LLC_loads 59466
Core_0_LLC_load_hit 48626
Core_0_LLC_load_miss 10840
Core_0_LLC_RFOs 295647
Core_0_LLC_RFO_hit 120633
Core_0_LLC_RFO_miss 175014
Core_0_LLC_prefetches 487890
Core_0_LLC_prefetch_hit 280852
Core_0_LLC_prefetch_miss 207038
Core_0_LLC_writebacks 397712
Core_0_LLC_writeback_hit 333838
Core_0_LLC_writeback_miss 63874
Core_0_LLC_prefetch_requested 0
Core_0_LLC_prefetch_dropped 0
Core_0_LLC_prefetch_issued 0
Core_0_LLC_prefetch_filled 325255
Core_0_LLC_prefetch_useful 9962
Core_0_LLC_prefetch_useless 314196
Core_0_LLC_prefetch_late 0
Core_0_LLC_average_miss_latency 263.43961

Core_0_LLC_rq_access 355116
Core_0_LLC_rq_forward 0
Core_0_LLC_rq_merged 0
Core_0_LLC_rq_to_cache 355113
Core_0_LLC_rq_full 0

Core_0_LLC_wq_access 397712
Core_0_LLC_wq_forward 5
Core_0_LLC_wq_merged 0
Core_0_LLC_wq_to_cache 397712
Core_0_LLC_wq_full 0

Core_0_LLC_pq_access 872569
Core_0_LLC_pq_forward 0
Core_0_LLC_pq_merged 0
Core_0_LLC_pq_to_cache 872567
Core_0_LLC_pq_full 0

Core_0_LLC_acc_epochs 99684
Core_0_LLC_acc_level_0 97081
Core_0_LLC_acc_level_1 1202
Core_0_LLC_acc_level_2 503
Core_0_LLC_acc_level_3 238
Core_0_LLC_acc_level_4 85
Core_0_LLC_acc_level_5 260
Core_0_LLC_acc_level_6 55
Core_0_LLC_acc_level_7 75
Core_0_LLC_acc_level_8 35
Core_0_LLC_acc_level_9 150

Core_0_major_page_fault 0
Core_0_minor_page_fault 7552

scooby_st_lookup 1851700
scooby_st_hit 1785580
scooby_st_evict 66056
scooby_st_insert 66120
scooby_st_streaming 0

scooby_predict_called 1851700
scooby_predict_out_of_bounds 30946
scooby_predict_action_1 1814054
scooby_predict_issue_action_1 1772013
scooby_predict_hit_action_1 42041
scooby_predict_out_of_bounds_action_1 29739
scooby_predict_action_3 576
scooby_predict_issue_action_3 561
scooby_predict_hit_action_3 15
scooby_predict_out_of_bounds_action_3 28
scooby_predict_action_4 563
scooby_predict_issue_action_4 555
scooby_predict_hit_action_4 8
scooby_predict_out_of_bounds_action_4 29
scooby_predict_action_5 532
scooby_predict_issue_action_5 527
scooby_predict_hit_action_5 5
scooby_predict_out_of_bounds_action_5 32
scooby_predict_action_10 523
scooby_predict_issue_action_10 514
scooby_predict_hit_action_10 9
scooby_predict_out_of_bounds_action_10 83
scooby_predict_action_11 477
scooby_predict_issue_action_11 465
scooby_predict_hit_action_11 12
scooby_predict_out_of_bounds_action_11 74
scooby_predict_action_12 466
scooby_predict_issue_action_12 457
scooby_predict_hit_action_12 9
scooby_predict_out_of_bounds_action_12 96
scooby_predict_action_22 342
scooby_predict_issue_action_22 337
scooby_predict_hit_action_22 5
scooby_predict_out_of_bounds_action_22 159
scooby_predict_action_23 329
scooby_predict_issue_action_23 321
scooby_predict_hit_action_23 8
scooby_predict_out_of_bounds_action_23 181
scooby_predict_action_30 347
scooby_predict_issue_action_30 338
scooby_predict_hit_action_30 9
scooby_predict_out_of_bounds_action_30 251
scooby_predict_action_32 223
scooby_predict_issue_action_32 213
scooby_predict_hit_action_32 10
scooby_predict_out_of_bounds_action_32 211
scooby_predict_action_-1 530
scooby_predict_issue_action_-1 339
scooby_predict_hit_action_-1 191
scooby_predict_out_of_bounds_action_-1 4
scooby_predict_action_-3 504
scooby_predict_issue_action_-3 348
scooby_predict_hit_action_-3 156
scooby_predict_out_of_bounds_action_-3 24
scooby_predict_action_-6 505
scooby_predict_issue_action_-6 362
scooby_predict_hit_action_-6 143
scooby_predict_out_of_bounds_action_-6 35
scooby_predict_action_0 783
scooby_predict_issue_action_0 0
scooby_predict_hit_action_0 0
scooby_predict_out_of_bounds_action_0 0
scooby_predict_multi_deg_called 1586239
scooby_predict_predicted 8652691
scooby_predict_multi_deg 6875341
scooby_predict_multi_deg_2 1559395
scooby_predict_multi_deg_3 1452830
scooby_predict_multi_deg_4 1426908
scooby_predict_multi_deg_5 1230452
scooby_predict_multi_deg_6 1205756
scooby_predict_multi_deg_7 0
scooby_predict_multi_deg_8 0
scooby_predict_multi_deg_9 0
scooby_predict_multi_deg_10 0
scooby_predict_multi_deg_11 0
scooby_predict_multi_deg_12 0
scooby_predict_multi_deg_13 0
scooby_predict_multi_deg_14 0
scooby_predict_multi_deg_15 0
scooby_predict_multi_deg_16 0

scooby_selected_deg_1 191111
scooby_selected_deg_2 82177
scooby_selected_deg_3 0
scooby_selected_deg_4 177789
scooby_selected_deg_5 0
scooby_selected_deg_6 1326273
scooby_selected_deg_7 0
scooby_selected_deg_8 0
scooby_selected_deg_9 0
scooby_selected_deg_10 0
scooby_selected_deg_11 0
scooby_selected_deg_12 0
scooby_selected_deg_13 0
scooby_selected_deg_14 0
scooby_selected_deg_15 0
scooby_selected_deg_16 0

scooby_state_848660|16|1 947,0,0,0,0,0,0,0,0,0,1,0,0,0,0,948,
scooby_state_848660|14|1 943,0,0,0,0,0,0,0,0,0,0,0,0,1,0,944,
scooby_state_848660|17|1 941,1,0,0,0,0,0,0,1,0,0,0,0,0,0,943,
scooby_state_848660|20|1 941,0,0,0,1,0,0,0,0,0,0,0,0,0,0,942,
scooby_state_848660|15|1 940,0,0,0,0,0,0,0,0,0,0,1,1,0,0,942,
scooby_state_848660|18|1 928,0,0,0,1,0,0,0,0,0,0,0,0,0,0,929,
scooby_state_848660|40|1 926,0,0,0,0,1,0,0,0,0,0,0,0,0,0,927,
scooby_state_848660|39|1 908,0,0,0,0,0,0,0,1,0,0,0,0,0,0,909,
scooby_state_848660|41|1 891,0,0,0,1,0,0,1,0,0,0,0,0,0,0,893,
scooby_state_848660|42|1 890,0,0,0,0,0,0,0,1,0,0,0,0,0,0,891,
scooby_state_848660|12|1 890,0,0,0,0,0,0,0,0,0,0,0,0,0,0,890,
scooby_state_848660|13|1 888,0,0,0,0,0,0,0,0,0,0,0,0,0,1,889,
scooby_state_848660|43|1 883,0,0,0,1,1,0,0,0,0,0,1,1,1,0,888,
scooby_state_848660|10|1 887,0,0,0,1,0,0,0,0,0,0,0,0,0,0,888,
scooby_state_848660|19|1 880,1,0,0,0,0,1,0,0,1,0,0,0,0,1,884,
scooby_state_848660|36|1 879,0,1,0,0,0,0,0,0,0,1,0,0,0,0,881,
scooby_state_848660|11|1 878,0,0,0,0,0,0,0,0,1,0,0,0,0,1,880,
scooby_state_848660|28|1 878,0,0,0,1,0,0,0,0,0,0,0,0,0,0,879,
scooby_state_848668|0|0 876,1,0,1,0,0,0,0,0,0,0,0,0,0,0,878,
scooby_state_848660|37|1 877,0,0,0,0,0,0,0,0,0,0,0,0,0,0,877,
scooby_state_848660|9|1 872,1,0,0,0,1,0,0,0,0,0,0,0,0,0,874,
scooby_state_848660|2|1 874,0,0,0,0,0,0,0,0,0,0,0,0,0,0,874,
scooby_state_848660|26|1 873,0,0,0,0,0,0,0,0,0,0,0,0,0,1,874,
scooby_state_848660|8|1 873,0,0,0,0,0,0,0,0,1,0,0,0,0,0,874,
scooby_state_848660|27|1 869,0,0,0,0,0,1,0,1,0,0,2,0,0,0,873,
scooby_state_848660|24|1 870,0,0,0,0,1,0,0,0,1,0,1,0,0,0,873,
scooby_state_848660|22|1 870,0,1,0,0,1,0,0,0,0,0,0,0,0,0,872,
scooby_state_848660|29|1 871,0,0,0,0,0,0,1,0,0,0,0,0,0,0,872,
scooby_state_848660|1|1 869,0,0,1,1,0,0,0,0,0,0,0,1,0,0,872,
scooby_state_848660|6|1 870,0,0,0,0,0,0,0,0,0,0,0,0,0,0,870,
scooby_state_848660|4|1 869,0,0,0,0,0,0,0,0,0,0,0,0,0,0,869,
scooby_state_848660|7|1 867,0,0,0,0,0,0,0,0,1,0,0,0,0,1,869,
scooby_state_848660|25|1 867,0,0,0,0,0,0,0,0,0,1,0,0,0,0,868,
scooby_state_848660|3|1 867,0,0,0,1,0,0,0,0,0,0,0,0,0,0,868,
scooby_state_848660|21|1 865,0,1,0,0,1,0,1,0,0,0,0,0,0,0,868,
scooby_state_848660|23|1 864,0,0,0,0,0,1,1,0,0,0,0,0,0,0,866,
scooby_state_848660|38|1 863,0,0,0,0,0,1,0,1,0,0,1,0,0,0,866,
scooby_state_848660|56|1 862,0,0,1,0,1,0,0,0,0,0,0,0,1,0,865,
scooby_state_848660|5|1 864,0,0,0,0,0,0,0,1,0,0,0,0,0,0,865,
scooby_state_848668|40|1 852,0,0,0,0,0,1,0,0,0,0,0,0,0,0,853,
scooby_state_848668|38|1 853,0,0,0,0,0,0,0,0,0,0,0,0,0,0,853,
scooby_state_848668|39|1 853,0,0,0,0,0,0,0,0,0,0,0,0,0,0,853,
scooby_state_848668|47|1 849,1,1,0,0,0,0,0,0,1,0,0,0,0,0,852,
scooby_state_848668|46|1 850,0,1,0,0,0,0,0,0,0,1,0,0,0,0,852,
scooby_state_848668|48|1 850,0,0,0,0,1,0,0,0,0,0,1,0,0,0,852,
scooby_state_848668|32|1 851,0,0,0,0,0,0,0,0,0,0,0,0,0,0,851,
scooby_state_848660|44|1 849,0,0,0,1,1,0,0,0,0,0,0,0,0,0,851,
scooby_state_848668|31|1 850,0,0,0,1,0,0,0,0,0,0,0,0,0,0,851,
scooby_state_848668|36|1 851,0,0,0,0,0,0,0,0,0,0,0,0,0,0,851,
scooby_state_848668|34|1 849,0,0,0,0,1,0,0,1,0,0,0,0,0,0,851,
scooby_state_848668|35|1 850,0,0,0,0,0,0,0,0,0,0,1,0,0,0,851,
scooby_state_848668|33|1 850,0,0,0,0,0,0,0,0,0,0,1,0,0,0,851,
scooby_state_848668|30|1 850,0,0,0,0,0,0,0,0,0,0,0,0,1,0,851,
scooby_state_848668|44|1 849,0,0,0,0,0,0,0,0,0,1,0,0,0,0,850,
scooby_state_848668|27|1 849,0,1,0,0,0,0,0,0,0,0,0,0,0,0,850,
scooby_state_848668|41|1 848,0,0,0,0,1,0,1,0,0,0,0,0,0,0,850,
scooby_state_848668|54|1 848,0,0,1,0,0,0,0,0,0,0,0,0,1,0,850,
scooby_state_848668|24|1 850,0,0,0,0,0,0,0,0,0,0,0,0,0,0,850,
scooby_state_848668|16|1 849,0,0,0,1,0,0,0,0,0,0,0,0,0,0,850,
scooby_state_848668|42|1 849,0,0,0,0,1,0,0,0,0,0,0,0,0,0,850,
scooby_state_848668|15|1 847,0,0,0,0,0,0,0,0,0,0,1,0,1,1,850,
scooby_state_848668|56|1 849,0,0,0,0,0,0,0,0,0,1,0,0,0,0,850,
scooby_state_848668|22|1 847,0,0,0,0,0,1,1,0,0,0,0,0,1,0,850,
scooby_state_848668|37|1 848,0,0,0,0,0,0,0,0,0,1,0,0,0,1,850,
scooby_state_848668|14|1 848,0,0,0,0,0,0,0,0,0,0,1,0,1,0,850,
scooby_state_848668|26|1 848,0,1,0,1,0,0,0,0,0,0,0,0,0,0,850,
scooby_state_848668|28|1 848,0,0,0,1,0,0,1,0,0,0,0,0,0,0,850,
scooby_state_848668|23|1 850,0,0,0,0,0,0,0,0,0,0,0,0,0,0,850,
scooby_state_848668|25|1 849,0,0,0,0,0,0,1,0,0,0,0,0,0,0,850,
scooby_state_848668|43|1 850,0,0,0,0,0,0,0,0,0,0,0,0,0,0,850,
scooby_state_848668|55|1 850,0,0,0,0,0,0,0,0,0,0,0,0,0,0,850,
scooby_state_848668|18|1 846,0,0,1,0,1,0,0,0,0,0,0,0,1,0,849,
scooby_state_848668|50|1 847,0,0,0,0,0,0,2,0,0,0,0,0,0,0,849,
scooby_state_848668|52|1 845,1,0,1,0,0,0,1,0,0,1,0,0,0,0,849,
scooby_state_848668|51|1 846,2,0,0,0,0,0,0,1,0,0,0,0,0,0,849,
scooby_state_848668|29|1 845,1,1,0,0,0,0,1,0,0,0,1,0,0,0,849,
scooby_state_848668|8|1 848,0,0,0,0,1,0,0,0,0,0,0,0,0,0,849,
scooby_state_848668|7|1 849,0,0,0,0,0,0,0,0,0,0,0,0,0,0,849,
scooby_state_848668|17|1 848,0,0,0,0,0,0,0,0,1,0,0,0,0,0,849,
scooby_state_848668|6|1 848,0,0,1,0,0,0,0,0,0,0,0,0,0,0,849,
scooby_state_848668|20|1 848,0,1,0,0,0,0,0,0,0,0,0,0,0,0,849,
scooby_state_848668|49|1 847,0,0,1,0,0,0,0,0,1,0,0,0,0,0,849,
scooby_state_848668|19|1 849,0,0,0,0,0,0,0,0,0,0,0,0,0,0,849,
scooby_state_848668|45|1 847,0,0,0,0,0,0,0,0,0,0,0,0,1,0,848,
scooby_state_848668|63|1 847,0,0,0,0,0,0,0,0,0,0,0,0,1,0,848,
scooby_state_848668|62|1 847,0,0,0,0,0,0,0,0,0,1,0,0,0,0,848,
scooby_state_848668|21|1 846,1,0,0,0,0,0,0,0,0,1,0,0,0,0,848,
scooby_state_848668|60|1 846,0,0,0,0,1,0,0,0,0,0,0,0,0,0,847,
scooby_state_848668|58|1 847,0,0,0,0,0,0,0,0,0,0,0,0,0,0,847,
scooby_state_848668|10|1 846,0,0,1,0,0,0,0,0,0,0,0,0,0,0,847,
scooby_state_848668|9|1 844,0,0,0,0,0,0,0,0,1,0,0,0,0,2,847,
scooby_state_848668|1|1 847,0,0,0,0,0,0,0,0,0,0,0,0,0,0,847,
scooby_state_848668|13|1 846,0,0,1,0,0,0,0,0,0,0,0,0,0,0,847,
scooby_state_848668|59|1 845,0,0,0,1,1,0,0,0,0,0,0,0,0,0,847,
scooby_state_848668|12|1 846,0,0,0,1,0,0,0,0,0,0,0,0,0,0,847,
scooby_state_848668|53|1 844,1,0,0,0,1,0,0,0,0,1,0,0,0,0,847,
scooby_state_848668|57|1 844,0,0,0,0,0,0,1,0,0,0,0,2,0,0,847,
scooby_state_848668|3|1 846,0,0,0,0,0,0,0,0,0,0,1,0,0,0,847,
scooby_state_848668|11|1 844,0,0,0,0,0,1,1,0,0,0,0,1,0,0,847,
scooby_state_848668|5|1 846,1,0,0,0,0,0,0,0,0,0,0,0,0,0,847,
scooby_state_848668|2|1 847,0,0,0,0,0,0,0,0,0,0,0,0,0,0,847,
scooby_state_848668|4|1 847,0,0,0,0,0,0,0,0,0,0,0,0,0,0,847,
scooby_state_848668|61|1 845,1,0,0,0,0,0,0,0,0,0,0,0,0,0,846,
scooby_state_848660|61|1 843,1,0,1,0,0,0,0,0,0,0,0,0,0,0,845,
scooby_state_848660|60|1 838,0,0,0,0,0,0,0,0,0,0,1,0,1,1,841,
scooby_state_848660|54|1 839,0,1,0,1,0,0,0,0,0,0,0,0,0,0,841,
scooby_state_848660|62|1 838,0,0,0,0,0,0,0,0,1,0,0,0,1,0,840,
scooby_state_848660|32|1 837,0,0,0,0,0,0,0,0,0,0,0,0,0,0,837,
scooby_state_848660|34|1 835,0,0,0,0,0,0,0,0,0,0,0,1,0,0,836,
scooby_state_848660|35|1 834,0,0,1,0,0,0,0,0,0,0,0,0,0,0,835,
scooby_state_848660|57|1 833,0,0,0,1,0,1,0,0,0,0,0,0,0,0,835,
scooby_state_848660|58|1 835,0,0,0,0,0,0,0,0,0,0,0,0,0,0,835,
scooby_state_848660|53|1 834,0,0,0,0,0,0,0,0,0,0,0,0,0,0,834,
scooby_state_848660|31|1 831,0,0,0,0,0,0,0,0,0,0,0,1,0,0,832,
scooby_state_848660|50|1 831,1,0,0,0,0,0,0,0,0,0,0,0,0,0,832,
scooby_state_848660|48|1 830,0,0,0,0,0,0,0,0,1,0,0,1,0,0,832,
scooby_state_848660|33|1 829,0,1,0,0,0,0,0,0,1,0,0,0,0,0,831,
scooby_state_848660|59|1 831,0,0,0,0,0,0,0,0,0,0,0,0,0,0,831,
scooby_state_848660|46|1 829,0,0,0,0,0,0,0,0,1,0,0,0,0,0,830,
scooby_state_848660|52|1 828,0,1,0,0,0,0,0,0,0,0,0,0,0,0,829,
scooby_state_848660|45|1 829,0,0,0,0,0,0,0,0,0,0,0,0,0,0,829,
scooby_state_848660|55|1 826,0,0,0,1,0,1,0,0,0,0,0,0,1,0,829,
scooby_state_848660|49|1 826,0,0,0,0,0,0,0,0,0,0,1,0,0,0,827,
scooby_state_848660|47|1 826,0,0,0,0,0,0,0,0,0,0,0,0,1,0,827,
scooby_state_848660|51|1 822,0,0,0,0,0,0,0,0,0,0,0,0,0,0,822,
scooby_state_848660|63|1 811,0,0,0,0,0,0,0,0,1,0,1,0,0,0,813,
scooby_state_848660|30|1 780,1,0,0,0,0,0,1,0,0,1,1,0,0,0,784,
scooby_state_848660|0|0 681,0,0,0,0,0,0,0,0,0,0,0,0,0,0,681,
scooby_state_8276d4|37|0 640,0,0,0,0,0,0,0,0,0,0,0,0,0,1,641,
scooby_state_5e95e0|31|0 590,0,0,0,0,0,0,1,0,0,0,0,0,0,0,591,
scooby_state_9636b4|12|0 565,1,0,0,0,1,0,0,0,0,0,0,1,0,0,568,
scooby_state_848021|49|0 556,0,0,0,0,0,0,0,1,0,0,0,0,1,0,558,
scooby_state_961641|52|-1 553,0,0,0,0,0,0,0,0,0,1,0,0,0,0,554,
scooby_state_963d00|48|-4 547,0,0,0,0,1,0,0,0,0,0,0,0,0,1,549,
scooby_state_827556|14|0 518,0,0,0,0,0,0,0,1,0,1,0,0,0,0,520,
scooby_state_97a6e0|34|8 396,9,12,10,10,8,10,8,8,9,8,6,6,6,12,518,
scooby_state_97a6e0|26|8 394,8,13,10,10,8,10,9,8,8,8,6,6,6,12,516,
scooby_state_825db0|10|1 502,1,0,0,0,0,0,0,0,0,0,0,0,0,0,503,
scooby_state_825db0|11|1 499,0,0,0,0,0,0,0,0,0,0,0,0,0,0,499,
scooby_state_825db0|13|1 498,0,0,0,0,0,0,0,0,0,0,0,0,0,0,498,
scooby_state_825db0|12|1 494,0,0,0,0,0,0,0,0,1,0,0,0,0,1,496,
scooby_state_825db0|14|1 489,0,0,0,0,0,0,0,0,0,0,0,0,0,0,489,
scooby_state_827465|54|1 487,0,0,0,0,0,0,0,0,0,0,0,0,0,0,487,
scooby_state_825db0|15|1 485,0,1,0,0,0,0,0,0,0,0,0,0,0,0,486,
scooby_state_82741e|53|-3 483,0,0,1,0,0,0,0,0,0,0,0,0,0,0,484,
scooby_state_9636c9|51|2 476,0,0,0,0,0,0,0,0,0,0,0,0,0,0,476,
scooby_state_825ca0|53|1 474,0,0,0,0,0,0,0,0,0,0,0,0,0,0,474,
scooby_state_825db0|9|1 469,0,1,0,0,0,0,0,1,1,0,0,0,0,0,472,
scooby_state_825ca0|54|1 472,0,0,0,0,0,0,0,0,0,0,0,0,0,0,472,
scooby_state_825ca0|40|1 467,0,0,0,0,0,0,0,0,0,0,0,0,0,0,467,
scooby_state_825db0|54|1 464,0,1,1,0,0,0,0,0,0,0,0,0,0,0,466,
scooby_state_825db0|44|1 465,0,0,0,0,0,0,0,0,0,0,0,0,0,0,465,
scooby_state_825db0|42|1 462,1,0,1,0,0,0,0,0,0,0,0,0,0,0,464,
scooby_state_825db0|43|1 464,0,0,0,0,0,0,0,0,0,0,0,0,0,0,464,
scooby_state_825db0|8|1 461,0,0,1,0,0,0,0,1,0,0,0,0,0,0,463,
scooby_state_825db0|53|1 463,0,0,0,0,0,0,0,0,0,0,0,0,0,0,463,
scooby_state_825ca0|6|1 461,0,0,0,0,0,0,0,0,0,1,0,0,0,0,462,
scooby_state_825ca0|8|1 461,0,0,0,0,0,0,1,0,0,0,0,0,0,0,462,
scooby_state_825ca0|4|1 459,1,0,0,0,0,0,0,1,0,0,0,0,0,0,461,
scooby_state_825db0|7|1 461,0,0,0,0,0,0,0,0,0,0,0,0,0,0,461,
scooby_state_825db0|5|1 460,0,0,0,0,0,0,0,0,0,0,0,0,0,0,460,
scooby_state_825db0|6|1 459,1,0,0,0,0,0,0,0,0,0,0,0,0,0,460,
scooby_state_825db0|4|1 458,0,0,0,0,0,0,0,0,0,0,0,0,0,0,458,
scooby_state_825ca0|5|1 457,0,0,0,0,0,0,0,0,0,0,0,0,0,0,457,
scooby_state_825ca0|7|1 456,0,0,0,0,0,0,0,0,0,0,0,0,0,0,456,
scooby_state_825ca0|41|1 455,0,0,1,0,0,0,0,0,0,0,0,0,0,0,456,
scooby_state_825ca0|42|1 455,0,0,0,0,0,0,0,0,0,0,0,0,0,0,455,
scooby_state_825ca0|43|1 455,0,0,0,0,0,0,0,0,0,0,0,0,0,0,455,
scooby_state_825ca0|3|1 454,0,0,0,0,0,0,0,0,0,0,0,0,0,1,455,
scooby_state_825ca0|44|1 455,0,0,0,0,0,0,0,0,0,0,0,0,0,0,455,
scooby_state_825db0|62|1 452,0,1,0,0,0,1,0,0,0,0,0,0,0,0,454,
scooby_state_825ca0|58|1 451,0,0,0,0,0,1,0,0,0,0,0,0,0,0,452,
scooby_state_825ca0|60|1 451,0,0,0,0,0,0,0,0,0,1,0,0,0,0,452,
scooby_state_825ca0|2|1 450,0,0,0,0,0,0,0,1,0,0,0,0,0,0,451,
scooby_state_825ca0|62|1 451,0,0,0,0,0,0,0,0,0,0,0,0,0,0,451,
scooby_state_825db0|3|1 450,0,0,0,0,0,0,1,0,0,0,0,0,0,0,451,
scooby_state_825db0|63|1 449,0,0,0,1,0,0,0,0,0,0,0,0,0,0,450,
scooby_state_825ca0|1|1 448,0,0,0,0,0,0,1,0,0,0,0,0,0,0,449,
scooby_state_825db0|61|1 449,0,0,0,0,0,0,0,0,0,0,0,0,0,0,449,
scooby_state_825ca0|10|1 447,0,0,0,0,0,0,0,0,0,0,0,0,1,0,448,
scooby_state_825db0|60|1 448,0,0,0,0,0,0,0,0,0,0,0,0,0,0,448,
scooby_state_825ca0|61|1 445,0,0,1,1,0,0,0,0,0,0,0,0,1,0,448,
scooby_state_825ca0|63|1 446,0,0,0,0,0,2,0,0,0,0,0,0,0,0,448,
scooby_state_825ca0|59|1 447,0,0,0,0,0,0,0,0,0,0,0,0,0,0,447,
scooby_state_825db0|58|1 446,0,0,0,0,0,0,0,0,0,0,0,0,0,0,446,
scooby_state_825db0|1|1 445,0,0,0,0,0,0,0,0,0,0,0,0,0,0,445,
scooby_state_825ca0|12|1 445,0,0,0,0,0,0,0,0,0,0,0,0,0,0,445,
scooby_state_825db0|59|1 445,0,0,0,0,0,0,0,0,0,0,0,0,0,0,445,
scooby_state_825ca0|11|1 442,0,0,0,0,1,0,0,0,0,0,0,0,0,0,443,
scooby_state_825ca0|13|1 442,0,0,0,0,0,0,0,0,1,0,0,0,0,0,443,
scooby_state_825db0|37|1 442,0,0,0,0,0,0,0,0,0,0,0,0,0,0,442,
scooby_state_825ca0|14|1 438,0,0,0,0,0,0,0,0,1,0,0,0,0,0,439,
scooby_state_825db0|2|1 437,0,0,0,0,0,0,0,0,1,0,0,0,0,0,438,
scooby_state_825ca0|15|1 435,0,0,0,0,0,0,0,0,0,0,0,1,0,0,436,
scooby_state_825db0|16|1 433,1,1,0,1,0,0,0,0,0,0,0,0,0,0,436,
scooby_state_825db0|17|1 436,0,0,0,0,0,0,0,0,0,0,0,0,0,0,436,
scooby_state_825ca0|50|1 433,1,0,0,0,0,0,0,0,0,0,0,0,0,0,434,
scooby_state_825ca0|52|1 432,0,0,0,1,0,0,0,0,0,0,0,0,0,0,433,
scooby_state_825ca0|51|1 433,0,0,0,0,0,0,0,0,0,0,0,0,0,0,433,
scooby_state_825ca0|9|1 429,1,0,0,0,1,0,0,0,0,0,0,1,0,0,432,
scooby_state_843064|27|0 431,0,0,0,0,0,0,0,0,0,0,0,0,0,0,431,
scooby_state_825db0|18|1 431,0,0,0,0,0,0,0,0,0,0,0,0,0,0,431,
scooby_state_9600e1|21|0 430,1,0,0,0,0,0,0,0,0,0,0,0,0,0,431,
scooby_state_825db0|35|1 429,0,0,0,0,0,0,0,0,0,0,0,1,0,0,430,
scooby_state_825db0|36|1 429,0,0,0,0,0,0,0,0,0,0,0,1,0,0,430,
scooby_state_825db0|19|1 429,0,0,0,0,0,0,0,0,0,0,0,1,0,0,430,
scooby_state_825db0|34|1 428,0,0,0,0,1,0,0,0,0,0,0,0,0,0,429,
scooby_state_825ca0|49|1 426,0,0,0,0,0,0,0,1,0,0,0,0,0,0,427,
scooby_state_825db0|28|1 425,1,0,0,0,0,0,0,0,0,1,0,0,0,0,427,
scooby_state_825ca0|57|1 426,0,0,0,0,0,1,0,0,0,0,0,0,0,0,427,
scooby_state_825ca0|55|1 425,0,0,0,1,0,0,0,0,0,0,0,0,0,0,426,
scooby_state_825db0|51|1 424,0,0,0,0,0,0,0,0,0,0,0,1,0,0,425,
scooby_state_825db0|50|1 423,0,1,0,0,0,0,0,1,0,0,0,0,0,0,425,
scooby_state_825db0|22|1 422,0,1,0,0,1,0,0,0,0,0,1,0,0,0,425,
scooby_state_825ca0|56|1 424,0,0,0,0,0,0,0,0,0,0,0,0,1,0,425,
scooby_state_825db0|52|1 423,0,0,1,0,0,0,0,0,0,0,0,0,0,0,424,
scooby_state_825db0|55|1 424,0,0,0,0,0,0,0,0,0,0,0,0,0,0,424,
scooby_state_825db0|29|1 422,0,0,0,0,1,1,0,0,0,0,0,0,0,0,424,
scooby_state_825db0|31|1 423,0,0,0,0,1,0,0,0,0,0,0,0,0,0,424,
scooby_state_825ca0|37|1 424,0,0,0,0,0,0,0,0,0,0,0,0,0,0,424,
scooby_state_825db0|48|1 422,0,0,0,0,0,0,0,0,0,0,0,0,0,0,422,
scooby_state_825db0|30|1 421,0,0,0,0,0,0,0,0,0,0,0,0,1,0,422,
scooby_state_825db0|47|1 421,0,0,0,0,0,0,0,0,1,0,0,0,0,0,422,
scooby_state_825db0|46|1 422,0,0,0,0,0,0,0,0,0,0,0,0,0,0,422,
scooby_state_825db0|57|1 421,0,0,0,0,0,0,0,0,0,0,0,0,0,0,421,
scooby_state_825db0|56|1 420,0,0,0,1,0,0,0,0,0,0,0,0,0,0,421,
scooby_state_825be2|13|0 420,0,0,1,0,0,0,0,0,0,0,0,0,0,0,421,
scooby_state_825db0|45|1 420,0,0,0,0,0,0,0,0,1,0,0,0,0,0,421,
scooby_state_825ca0|48|1 421,0,0,0,0,0,0,0,0,0,0,0,0,0,0,421,
scooby_state_825db0|49|1 420,0,0,0,0,0,0,0,0,0,0,0,0,0,0,420,
scooby_state_825ca0|34|1 416,0,0,0,0,0,0,0,0,0,0,0,0,0,0,416,
scooby_state_825ca0|35|1 415,0,0,0,0,0,0,0,0,0,0,0,0,0,0,415,
scooby_state_825ca0|36|1 415,0,0,0,0,0,0,0,0,0,0,0,0,0,0,415,
scooby_state_827640|29|1 414,0,0,0,0,0,0,0,0,0,0,0,0,0,0,414,
scooby_state_825db0|21|1 411,0,0,0,0,0,0,0,0,0,0,0,1,0,0,412,
scooby_state_825ca0|46|1 412,0,0,0,0,0,0,0,0,0,0,0,0,0,0,412,
scooby_state_8273ea|15|0 410,0,0,0,0,0,0,0,0,0,0,1,1,0,0,412,
scooby_state_825db0|23|1 410,0,0,0,0,0,0,0,0,0,0,0,1,0,0,411,
scooby_state_825ca0|45|1 411,0,0,0,0,0,0,0,0,0,0,0,0,0,0,411,
scooby_state_825ca0|47|1 410,0,0,0,0,0,0,0,0,0,0,0,0,0,0,410,
scooby_state_8e3f10|41|1 409,0,0,0,0,0,0,0,0,0,0,0,0,0,0,409,
scooby_state_825db0|20|1 406,0,0,0,0,0,0,0,0,1,1,0,0,0,1,409,
scooby_state_8274f9|28|1 408,0,0,0,0,0,0,0,0,0,0,0,0,0,0,408,
scooby_state_825db0|24|1 408,0,0,0,0,0,0,0,0,0,0,0,0,0,0,408,
scooby_state_825ca0|39|1 406,0,1,0,0,0,0,0,0,0,0,0,0,0,0,407,
scooby_state_825db0|41|1 407,0,0,0,0,0,0,0,0,0,0,0,0,0,0,407,
scooby_state_825db0|38|1 407,0,0,0,0,0,0,0,0,0,0,0,0,0,0,407,
scooby_state_825db0|27|1 406,0,0,0,0,0,0,0,0,1,0,0,0,0,0,407,
scooby_state_825db0|26|1 406,0,0,0,0,0,0,0,0,0,0,0,0,0,0,406,
scooby_state_825db0|25|1 405,0,1,0,0,0,0,0,0,0,0,0,0,0,0,406,
scooby_state_825db0|40|1 405,0,0,0,0,0,0,0,0,0,0,0,0,0,0,405,
scooby_state_825ca0|38|1 403,0,0,0,0,0,0,0,1,1,0,0,0,0,0,405,
scooby_state_8273c4|21|0 404,0,0,0,0,0,0,0,0,0,0,0,0,0,0,404,
scooby_state_8274c4|27|-27 403,0,0,0,0,0,0,0,0,0,0,0,1,0,0,404,
scooby_state_825db0|39|1 400,0,0,0,0,0,0,0,0,0,0,0,0,0,0,400,
scooby_state_96156e|53|0 397,0,0,0,0,0,0,0,0,0,0,0,0,0,0,397,
scooby_state_825ca0|18|1 385,0,0,0,0,0,0,0,0,0,1,0,0,0,0,386,
scooby_state_825ca0|16|1 385,0,0,0,0,0,0,0,0,0,0,0,0,0,1,386,
scooby_state_825ca0|17|1 383,0,0,0,0,0,0,0,0,0,0,1,0,0,0,384,
scooby_state_8e3f10|35|1 383,0,0,0,0,0,0,1,0,0,0,0,0,0,0,384,
scooby_state_8e3f10|36|1 377,0,0,0,0,0,0,0,0,0,0,0,0,0,0,377,
scooby_state_8e3f10|37|1 376,0,0,0,0,0,0,0,0,0,0,0,0,0,0,376,
scooby_state_848567|16|1 374,0,0,0,0,0,0,0,0,0,0,0,0,0,0,374,
scooby_state_963689|49|0 368,0,1,0,0,0,0,0,0,0,0,0,0,0,0,369,
scooby_state_825db0|33|1 366,0,0,0,0,0,0,0,0,0,0,0,0,0,0,366,
scooby_state_8e3f10|40|1 363,0,0,0,0,0,0,0,0,0,0,0,0,0,0,363,
scooby_state_8e3f10|39|1 362,0,1,0,0,0,0,0,0,0,0,0,0,0,0,363,
scooby_state_825db0|32|1 361,0,0,0,0,0,0,0,0,0,0,0,0,0,0,361,
scooby_state_8e3f10|38|1 361,0,0,0,0,0,0,0,0,0,0,0,0,0,0,361,
scooby_state_825ca0|33|1 357,0,0,0,0,1,0,0,0,0,0,0,0,0,0,358,
scooby_state_825ca0|31|1 357,0,0,0,0,0,0,0,0,0,0,0,0,0,0,357,
scooby_state_825ca0|28|1 356,0,0,0,0,0,0,0,0,0,0,0,0,0,1,357,
scooby_state_825ca0|30|1 355,0,0,0,0,0,0,0,0,1,0,0,0,0,0,356,
scooby_state_825ca0|29|1 356,0,0,0,0,0,0,0,0,0,0,0,0,0,0,356,
scooby_state_825ca0|32|1 354,0,0,0,0,0,0,0,0,0,0,0,0,0,0,354,
scooby_state_9636a0|33|0 350,0,0,0,0,0,0,0,0,0,0,0,0,1,0,351,
scooby_state_825ca0|22|1 347,0,0,0,0,0,0,0,0,1,0,0,0,0,0,348,
scooby_state_84855c|13|0 345,0,0,0,0,0,0,0,0,0,0,0,0,0,0,345,
scooby_state_7f93b0|51|0 341,0,0,0,1,0,0,0,0,0,0,0,0,0,0,342,
scooby_state_7f9580|53|0 341,0,0,1,0,0,0,0,0,0,0,0,0,0,0,342,
scooby_state_7f95df|45|2 341,0,1,0,0,0,0,0,0,0,0,0,0,0,0,342,
scooby_state_7f95df|47|0 340,1,1,0,0,0,0,0,0,0,0,0,0,0,0,342,
scooby_state_7f9229|9|0 341,0,0,0,0,0,0,0,0,0,0,0,0,0,0,341,
scooby_state_7f95df|50|0 338,1,1,0,0,0,0,0,0,1,0,0,0,0,0,341,
scooby_state_7f95df|55|1 340,1,0,0,0,0,0,0,0,0,0,0,0,0,0,341,
scooby_state_7f9229|57|16 338,0,0,1,0,0,0,0,0,0,0,0,0,0,0,339,
scooby_state_825ca0|20|1 337,0,0,0,0,0,0,0,0,0,0,0,0,0,0,337,
scooby_state_825ca0|26|1 335,0,0,0,0,0,0,0,0,0,0,0,0,0,0,335,
scooby_state_825ca0|21|1 335,0,0,0,0,0,0,0,0,0,0,0,0,0,0,335,
scooby_state_825ca0|27|1 334,0,0,0,0,0,0,0,0,0,0,0,0,0,0,334,
scooby_state_825ca0|19|1 333,0,0,0,0,0,0,0,0,0,0,0,0,0,0,333,
scooby_state_825ca0|25|1 330,0,0,0,0,0,0,1,0,0,1,0,0,1,0,333,
scooby_state_825ca0|23|1 332,0,0,0,0,0,1,0,0,0,0,0,0,0,0,333,
scooby_state_825ca0|24|1 332,0,1,0,0,0,0,0,0,0,0,0,0,0,0,333,
scooby_state_84854e|15|-12 332,0,0,0,0,0,0,0,0,0,0,0,0,0,0,332,
scooby_state_7f95df|58|0 325,1,1,0,0,0,0,0,0,0,0,0,0,0,0,327,
scooby_state_96159e|34|1 315,0,0,0,0,0,0,0,0,0,0,0,0,0,0,315,
scooby_state_7f95df|9|2 312,0,0,0,0,0,0,0,0,0,0,0,0,0,0,312,
scooby_state_7f9229|63|16 299,0,0,0,0,0,0,0,0,0,0,0,0,0,0,299,
scooby_state_8e3f10|42|1 292,0,0,0,0,0,0,0,0,0,0,0,0,0,0,292,
scooby_state_97985d|12|0 292,0,0,0,0,0,0,0,0,0,0,0,0,0,0,292,
scooby_state_848572|17|1 288,0,0,0,0,0,0,0,0,0,1,0,0,0,0,289,
scooby_state_977500|23|0 287,0,0,0,0,0,0,0,0,0,0,0,0,0,0,287,
scooby_state_8262ad|56|27 286,0,0,0,0,0,0,0,0,0,0,0,0,0,0,286,
scooby_state_7f958c|43|-2 285,0,0,0,0,0,0,0,0,0,0,0,0,0,0,285,
scooby_state_7f958c|54|-1 283,1,0,0,0,0,0,1,0,0,0,0,0,0,0,285,
scooby_state_7f91ee|41|-16 284,0,0,0,0,0,0,0,0,0,1,0,0,0,0,285,
scooby_state_7f9580|35|0 277,0,0,0,0,0,0,0,0,0,0,0,0,0,0,277,
scooby_state_5416b9|24|0 270,0,0,1,0,0,0,0,0,0,0,0,0,0,0,271,
scooby_state_5416b3|63|1 268,0,0,0,0,0,0,0,1,0,0,0,0,0,0,269,
scooby_state_7f95df|60|0 258,2,1,0,0,0,0,0,0,0,0,0,0,0,0,261,
scooby_state_97a6e0|42|8 198,5,6,5,5,4,5,4,4,4,4,3,3,3,6,259,
scooby_state_7f958c|7|-2 255,0,0,0,1,0,0,0,0,0,0,0,0,0,0,256,
scooby_state_7f91ee|59|52 246,0,0,0,0,0,0,0,0,0,0,0,0,0,0,246,
scooby_state_4004f0|2|0 243,0,0,0,0,0,0,0,0,0,0,0,0,0,0,243,
scooby_state_848138|53|1 228,0,0,0,0,1,0,0,0,0,0,0,0,0,0,229,
scooby_state_848138|54|1 229,0,0,0,0,0,0,0,0,0,0,0,0,0,0,229,
scooby_state_848138|59|1 229,0,0,0,0,0,0,0,0,0,0,0,0,0,0,229,
scooby_state_848138|60|1 228,0,0,0,0,0,0,0,0,0,0,0,0,0,1,229,
scooby_state_848138|55|1 228,0,0,0,0,1,0,0,0,0,0,0,0,0,0,229,
scooby_state_848138|52|1 229,0,0,0,0,0,0,0,0,0,0,0,0,0,0,229,
scooby_state_848138|58|1 229,0,0,0,0,0,0,0,0,0,0,0,0,0,0,229,
scooby_state_848138|51|1 228,0,0,0,0,0,0,0,0,1,0,0,0,0,0,229,
scooby_state_848138|63|1 228,0,0,0,0,0,0,0,0,0,1,0,0,0,0,229,
scooby_state_848138|57|1 229,0,0,0,0,0,0,0,0,0,0,0,0,0,0,229,
scooby_state_848138|62|1 229,0,0,0,0,0,0,0,0,0,0,0,0,0,0,229,
scooby_state_848138|56|1 228,0,0,0,0,0,0,0,0,0,0,0,1,0,0,229,
scooby_state_848138|61|1 229,0,0,0,0,0,0,0,0,0,0,0,0,0,0,229,
scooby_state_7f9229|47|16 227,0,0,0,0,0,0,0,0,1,0,0,0,0,0,228,
scooby_state_64aa40|41|1 228,0,0,0,0,0,0,0,0,0,0,0,0,0,0,228,
scooby_state_5416a0|62|0 228,0,0,0,0,0,0,0,0,0,0,0,0,0,0,228,
scooby_state_64acc0|51|1 227,0,0,0,0,0,0,0,0,0,0,1,0,0,0,228,
scooby_state_7f91b9|33|24 227,0,0,1,0,0,0,0,0,0,0,0,0,0,0,228,
scooby_state_7f95df|32|0 227,1,0,0,0,0,0,0,0,0,0,0,0,0,0,228,
scooby_state_64aa02|40|1 228,0,0,0,0,0,0,0,0,0,0,0,0,0,0,228,
scooby_state_7f9229|45|16 227,0,0,0,0,0,0,0,0,0,0,0,1,0,0,228,
scooby_state_64bf00|60|1 228,0,0,0,0,0,0,0,0,0,0,0,0,0,0,228,
scooby_state_7f95df|29|0 227,1,0,0,0,0,0,0,0,0,0,0,0,0,0,228,
scooby_state_7f9580|7|-52 228,0,0,0,0,0,0,0,0,0,0,0,0,0,0,228,
scooby_state_961597|61|0 227,0,0,0,0,0,0,0,0,0,0,0,0,0,0,227,
scooby_state_848138|7|1 227,0,0,0,0,0,0,0,0,0,0,0,0,0,0,227,
scooby_state_7f93eb|49|16 226,0,0,0,0,0,1,0,0,0,0,0,0,0,0,227,
scooby_state_5416e3|63|1 225,0,0,0,0,0,1,0,0,0,0,0,0,0,1,227,
scooby_state_5416e9|24|0 227,0,0,0,0,0,0,0,0,0,0,0,0,0,0,227,
scooby_state_864f2c|15|0 227,0,0,0,0,0,0,0,0,0,0,0,0,0,0,227,
scooby_state_7f93eb|48|16 225,0,0,0,0,0,0,0,0,0,0,0,0,0,0,225,
scooby_state_78f300|12|1 224,0,0,0,0,0,0,0,0,0,0,0,0,0,0,224,
scooby_state_793c80|50|1 216,0,1,0,0,0,0,0,0,0,0,0,0,0,0,217,
scooby_state_961597|55|0 215,0,0,0,0,0,0,0,0,0,0,0,0,0,0,215,
scooby_state_7f93eb|2|0 213,0,0,0,0,0,0,0,0,0,0,0,0,0,0,213,
scooby_state_97a6e0|2|-40 208,0,0,1,0,0,0,0,0,0,0,0,0,0,0,209,
scooby_state_9636a0|33|-1 205,0,0,0,0,0,0,0,0,0,0,0,0,0,0,205,
scooby_state_828480|9|-1 205,0,0,0,0,0,0,0,0,0,0,0,0,0,0,205,
scooby_state_825db0|0|0 201,0,0,0,0,0,0,0,0,0,0,0,0,0,0,201,
scooby_state_97a6e0|50|8 129,3,6,5,5,4,5,4,4,4,5,3,3,3,6,189,
scooby_state_8e40a7|40|-1 187,0,0,0,0,0,0,0,0,0,0,0,0,0,0,187,
scooby_state_963689|49|-2 184,0,0,0,0,0,0,0,0,0,0,0,0,0,0,184,
scooby_state_97a6e0|58|8 124,3,6,5,5,4,5,4,4,4,4,3,4,3,6,184,
scooby_state_8e40a7|41|-1 183,0,0,0,0,0,0,0,0,0,0,0,0,0,0,183,
scooby_state_7f9229|31|1 181,0,0,0,0,0,0,0,0,1,0,0,0,0,0,182,
scooby_state_82794d|11|0 180,0,0,0,0,0,0,0,0,0,0,0,0,0,0,180,
scooby_state_827b90|61|0 180,0,0,0,0,0,0,0,0,0,0,0,0,0,0,180,
scooby_state_827855|30|1 179,0,0,0,0,0,0,0,1,0,0,0,0,0,0,180,
scooby_state_84804a|20|1 174,0,0,0,0,0,0,1,0,0,0,0,1,0,0,176,
scooby_state_97a6e0|18|8 116,3,6,5,5,4,5,4,4,4,4,3,3,3,6,175,
scooby_state_97a6e0|10|8 116,3,6,5,5,4,5,4,4,4,4,3,3,3,6,175,
scooby_state_97a6e0|18|-40 174,0,0,0,0,0,0,0,0,0,0,0,0,0,0,174,
scooby_state_848138|0|0 172,0,0,0,0,0,0,0,0,0,0,0,0,0,0,172,
scooby_state_848138|4|1 172,0,0,0,0,0,0,0,0,0,0,0,0,0,0,172,
scooby_state_848138|50|1 172,0,0,0,0,0,0,0,0,0,0,0,0,0,0,172,
scooby_state_848138|49|1 172,0,0,0,0,0,0,0,0,0,0,0,0,0,0,172,
scooby_state_848138|45|1 172,0,0,0,0,0,0,0,0,0,0,0,0,0,0,172,
scooby_state_825be2|13|-2 172,0,0,0,0,0,0,0,0,0,0,0,0,0,0,172,
scooby_state_848138|1|1 171,0,0,0,0,0,0,0,0,0,0,1,0,0,0,172,
scooby_state_848138|3|1 172,0,0,0,0,0,0,0,0,0,0,0,0,0,0,172,
scooby_state_848138|2|1 172,0,0,0,0,0,0,0,0,0,0,0,0,0,0,172,
scooby_state_64acdc|58|1 171,0,0,0,0,0,0,0,0,0,0,0,0,0,0,171,
scooby_state_65e6f0|15|1 171,0,0,0,0,0,0,0,0,0,0,0,0,0,0,171,
scooby_state_64aa02|49|1 171,0,0,0,0,0,0,0,0,0,0,0,0,0,0,171,
scooby_state_64a9b6|54|1 171,0,0,0,0,0,0,0,0,0,0,0,0,0,0,171,
scooby_state_64aa02|43|1 170,0,1,0,0,0,0,0,0,0,0,0,0,0,0,171,
scooby_state_64aa02|57|1 171,0,0,0,0,0,0,0,0,0,0,0,0,0,0,171,
scooby_state_65e6f9|3|1 171,0,0,0,0,0,0,0,0,0,0,0,0,0,0,171,
scooby_state_64a0e6|51|1 171,0,0,0,0,0,0,0,0,0,0,0,0,0,0,171,
scooby_state_64aa40|27|1 170,0,0,0,0,0,0,0,1,0,0,0,0,0,0,171,
scooby_state_64a9ea|35|1 171,0,0,0,0,0,0,0,0,0,0,0,0,0,0,171,
scooby_state_64a0e6|57|1 171,0,0,0,0,0,0,0,0,0,0,0,0,0,0,171,
scooby_state_64bf00|6|1 171,0,0,0,0,0,0,0,0,0,0,0,0,0,0,171,
scooby_state_64acdc|57|1 171,0,0,0,0,0,0,0,0,0,0,0,0,0,0,171,
scooby_state_649d25|42|1 171,0,0,0,0,0,0,0,0,0,0,0,0,0,0,171,
scooby_state_64a0d4|42|1 171,0,0,0,0,0,0,0,0,0,0,0,0,0,0,171,
scooby_state_65e6f0|32|1 171,0,0,0,0,0,0,0,0,0,0,0,0,0,0,171,
scooby_state_7a88f0|0|0 171,0,0,0,0,0,0,0,0,0,0,0,0,0,0,171,
scooby_state_64bf00|0|0 171,0,0,0,0,0,0,0,0,0,0,0,0,0,0,171,
scooby_state_64a9f1|62|1 171,0,0,0,0,0,0,0,0,0,0,0,0,0,0,171,
scooby_state_65f370|36|1 171,0,0,0,0,0,0,0,0,0,0,0,0,0,0,171,
scooby_state_64a9e4|34|1 171,0,0,0,0,0,0,0,0,0,0,0,0,0,0,171,
scooby_state_64a0ce|6|1 171,0,0,0,0,0,0,0,0,0,0,0,0,0,0,171,
scooby_state_64bf70|9|1 171,0,0,0,0,0,0,0,0,0,0,0,0,0,0,171,
scooby_state_64a9ea|44|1 170,0,0,0,0,0,0,0,0,0,0,0,1,0,0,171,
scooby_state_65dca0|29|1 171,0,0,0,0,0,0,0,0,0,0,0,0,0,0,171,
scooby_state_64a613|39|-18 171,0,0,0,0,0,0,0,0,0,0,0,0,0,0,171,
scooby_state_65ebd0|31|1 171,0,0,0,0,0,0,0,0,0,0,0,0,0,0,171,
scooby_state_65f370|40|1 170,0,1,0,0,0,0,0,0,0,0,0,0,0,0,171,
scooby_state_64a9d3|4|1 171,0,0,0,0,0,0,0,0,0,0,0,0,0,0,171,
scooby_state_64a9cd|7|1 171,0,0,0,0,0,0,0,0,0,0,0,0,0,0,171,
scooby_state_64acc0|58|1 171,0,0,0,0,0,0,0,0,0,0,0,0,0,0,171,
scooby_state_848138|37|1 171,0,0,0,0,0,0,0,0,0,0,0,0,0,0,171,
scooby_state_64bf00|52|1 171,0,0,0,0,0,0,0,0,0,0,0,0,0,0,171,
scooby_state_64a0e6|52|1 171,0,0,0,0,0,0,0,0,0,0,0,0,0,0,171,
scooby_state_64a9cd|50|1 171,0,0,0,0,0,0,0,0,0,0,0,0,0,0,171,
scooby_state_65e6f9|59|1 171,0,0,0,0,0,0,0,0,0,0,0,0,0,0,171,
scooby_state_64aa40|43|1 170,1,0,0,0,0,0,0,0,0,0,0,0,0,0,171,
scooby_state_64a0b0|62|0 171,0,0,0,0,0,0,0,0,0,0,0,0,0,0,171,
scooby_state_64aa02|63|1 171,0,0,0,0,0,0,0,0,0,0,0,0,0,0,171,
scooby_state_64a0f2|5|1 171,0,0,0,0,0,0,0,0,0,0,0,0,0,0,171,
scooby_state_65f370|38|1 171,0,0,0,0,0,0,0,0,0,0,0,0,0,0,171,
scooby_state_65e6f9|4|1 171,0,0,0,0,0,0,0,0,0,0,0,0,0,0,171,
scooby_state_64acc0|54|1 171,0,0,0,0,0,0,0,0,0,0,0,0,0,0,171,
scooby_state_64a140|61|1 171,0,0,0,0,0,0,0,0,0,0,0,0,0,0,171,
scooby_state_64a0ec|43|1 170,0,0,0,0,0,0,0,0,1,0,0,0,0,0,171,
scooby_state_64a9cd|54|1 171,0,0,0,0,0,0,0,0,0,0,0,0,0,0,171,
scooby_state_64a0f2|1|1 171,0,0,0,0,0,0,0,0,0,0,0,0,0,0,171,
scooby_state_64aa40|48|1 170,0,0,0,0,0,1,0,0,0,0,0,0,0,0,171,
scooby_state_64a9b0|61|1 170,0,0,0,0,0,0,1,0,0,0,0,0,0,0,171,
scooby_state_65ebd0|46|1 171,0,0,0,0,0,0,0,0,0,0,0,0,0,0,171,
scooby_state_64a0ce|63|1 170,1,0,0,0,0,0,0,0,0,0,0,0,0,0,171,
scooby_state_65e6f9|63|1 170,0,0,0,0,0,0,1,0,0,0,0,0,0,0,171,
scooby_state_65dca9|52|1 171,0,0,0,0,0,0,0,0,0,0,0,0,0,0,171,
scooby_state_64a9ea|51|1 171,0,0,0,0,0,0,0,0,0,0,0,0,0,0,171,
scooby_state_64acdc|60|1 171,0,0,0,0,0,0,0,0,0,0,0,0,0,0,171,
scooby_state_64a0d4|46|1 171,0,0,0,0,0,0,0,0,0,0,0,0,0,0,171,
scooby_state_64a9e4|53|1 171,0,0,0,0,0,0,0,0,0,0,0,0,0,0,171,
scooby_state_64a9b0|60|1 171,0,0,0,0,0,0,0,0,0,0,0,0,0,0,171,
scooby_state_64acdc|44|1 171,0,0,0,0,0,0,0,0,0,0,0,0,0,0,171,
scooby_state_64a9cd|49|1 171,0,0,0,0,0,0,0,0,0,0,0,0,0,0,171,
scooby_state_64acdc|54|1 171,0,0,0,0,0,0,0,0,0,0,0,0,0,0,171,
scooby_state_64a5ac|55|10 170,0,0,0,1,0,0,0,0,0,0,0,0,0,0,171,
scooby_state_64bf00|12|1 171,0,0,0,0,0,0,0,0,0,0,0,0,0,0,171,
scooby_state_64a140|47|1 171,0,0,0,0,0,0,0,0,0,0,0,0,0,0,171,
scooby_state_65ebd0|27|1 171,0,0,0,0,0,0,0,0,0,0,0,0,0,0,171,
scooby_state_64a9f1|1|1 170,0,0,0,0,0,0,0,0,1,0,0,0,0,0,171,
scooby_state_64bf70|50|1 170,0,0,0,0,0,0,0,0,1,0,0,0,0,0,171,
scooby_state_65e6f0|34|1 171,0,0,0,0,0,0,0,0,0,0,0,0,0,0,171,
scooby_state_64a9e4|27|1 171,0,0,0,0,0,0,0,0,0,0,0,0,0,0,171,
scooby_state_64a0ce|11|1 171,0,0,0,0,0,0,0,0,0,0,0,0,0,0,171,
scooby_state_65e6f9|50|1 171,0,0,0,0,0,0,0,0,0,0,0,0,0,0,171,
scooby_state_64acdc|48|1 170,0,0,0,0,0,0,0,0,0,0,0,0,0,1,171,
scooby_state_64a9cd|53|1 171,0,0,0,0,0,0,0,0,0,0,0,0,0,0,171,
scooby_state_64bf70|63|1 170,0,0,0,0,1,0,0,0,0,0,0,0,0,0,171,
scooby_state_64a0e6|56|1 171,0,0,0,0,0,0,0,0,0,0,0,0,0,0,171,
scooby_state_64bf00|4|1 171,0,0,0,0,0,0,0,0,0,0,0,0,0,0,171,
scooby_state_64a9b0|48|1 170,0,0,0,0,0,0,0,0,0,0,1,0,0,0,171,
scooby_state_64bf00|7|1 171,0,0,0,0,0,0,0,0,0,0,0,0,0,0,171,
scooby_state_64a9e4|33|1 170,0,0,0,0,0,0,0,0,0,0,0,1,0,0,171,
scooby_state_64bf00|46|1 171,0,0,0,0,0,0,0,0,0,0,0,0,0,0,171,
scooby_state_64bf00|47|1 171,0,0,0,0,0,0,0,0,0,0,0,0,0,0,171,
scooby_state_848138|40|1 170,0,0,0,0,0,0,0,0,1,0,0,0,0,0,171,
scooby_state_64a0ec|50|1 171,0,0,0,0,0,0,0,0,0,0,0,0,0,0,171,
scooby_state_65e6f9|10|1 170,0,0,0,0,0,0,0,0,0,0,0,0,1,0,171,
scooby_state_65e6f0|36|1 171,0,0,0,0,0,0,0,0,0,0,0,0,0,0,171,
scooby_state_64aa02|47|1 170,0,0,1,0,0,0,0,0,0,0,0,0,0,0,171,
scooby_state_64a0e6|62|1 170,0,0,1,0,0,0,0,0,0,0,0,0,0,0,171,
scooby_state_64aa02|39|1 171,0,0,0,0,0,0,0,0,0,0,0,0,0,0,171,
scooby_state_64aa02|53|1 171,0,0,0,0,0,0,0,0,0,0,0,0,0,0,171,
scooby_state_64aa40|42|1 169,0,0,0,1,0,0,0,0,0,0,0,1,0,0,171,
scooby_state_64a9ea|30|1 170,0,1,0,0,0,0,0,0,0,0,0,0,0,0,171,
scooby_state_64a9ea|50|1 171,0,0,0,0,0,0,0,0,0,0,0,0,0,0,171,
scooby_state_64a0ce|59|1 171,0,0,0,0,0,0,0,0,0,0,0,0,0,0,171,
scooby_state_64a0b6|2|1 171,0,0,0,0,0,0,0,0,0,0,0,0,0,0,171,
scooby_state_64a0b6|19|1 171,0,0,0,0,0,0,0,0,0,0,0,0,0,0,171,
scooby_state_7a88f0|54|1 171,0,0,0,0,0,0,0,0,0,0,0,0,0,0,171,
scooby_state_64a9ea|46|1 170,0,0,0,0,0,0,0,0,0,0,0,0,1,0,171,
scooby_state_64acdc|62|1 171,0,0,0,0,0,0,0,0,0,0,0,0,0,0,171,
scooby_state_64a9b0|47|1 171,0,0,0,0,0,0,0,0,0,0,0,0,0,0,171,
scooby_state_64aa40|49|1 171,0,0,0,0,0,0,0,0,0,0,0,0,0,0,171,
scooby_state_64a0ec|49|1 171,0,0,0,0,0,0,0,0,0,0,0,0,0,0,171,
scooby_state_64a9bc|36|1 171,0,0,0,0,0,0,0,0,0,0,0,0,0,0,171,
scooby_state_64aa02|56|1 171,0,0,0,0,0,0,0,0,0,0,0,0,0,0,171,
scooby_state_64a9b0|54|1 170,0,0,0,1,0,0,0,0,0,0,0,0,0,0,171,
scooby_state_7a88f0|7|1 171,0,0,0,0,0,0,0,0,0,0,0,0,0,0,171,
scooby_state_64a9bc|30|1 171,0,0,0,0,0,0,0,0,0,0,0,0,0,0,171,
scooby_state_65ebd0|26|1 170,1,0,0,0,0,0,0,0,0,0,0,0,0,0,171,
scooby_state_64a140|59|1 171,0,0,0,0,0,0,0,0,0,0,0,0,0,0,171,
scooby_state_64a0d4|38|1 171,0,0,0,0,0,0,0,0,0,0,0,0,0,0,171,
scooby_state_64a0ec|61|1 169,0,0,0,0,0,0,0,2,0,0,0,0,0,0,171,
scooby_state_64a0bc|31|1 171,0,0,0,0,0,0,0,0,0,0,0,0,0,0,171,
scooby_state_64a0f2|0|0 171,0,0,0,0,0,0,0,0,0,0,0,0,0,0,171,
scooby_state_64a9d3|6|1 170,0,0,0,0,0,0,0,0,1,0,0,0,0,0,171,
scooby_state_64acdc|3|1 171,0,0,0,0,0,0,0,0,0,0,0,0,0,0,171,
scooby_state_64a0ce|10|1 171,0,0,0,0,0,0,0,0,0,0,0,0,0,0,171,
scooby_state_64a9b6|63|1 171,0,0,0,0,0,0,0,0,0,0,0,0,0,0,171,
scooby_state_649ccc|37|-22 171,0,0,0,0,0,0,0,0,0,0,0,0,0,0,171,
scooby_state_64a0ce|3|1 171,0,0,0,0,0,0,0,0,0,0,0,0,0,0,171,
scooby_state_7a88f0|44|1 171,0,0,0,0,0,0,0,0,0,0,0,0,0,0,171,
scooby_state_65dca0|39|1 171,0,0,0,0,0,0,0,0,0,0,0,0,0,0,171,
scooby_state_64a0f2|63|1 171,0,0,0,0,0,0,0,0,0,0,0,0,0,0,171,
scooby_state_64a414|38|1 171,0,0,0,0,0,0,0,0,0,0,0,0,0,0,171,
scooby_state_7a88f0|62|1 171,0,0,0,0,0,0,0,0,0,0,0,0,0,0,171,
scooby_state_64bf00|48|1 171,0,0,0,0,0,0,0,0,0,0,0,0,0,0,171,
scooby_state_64a40e|44|1 171,0,0,0,0,0,0,0,0,0,0,0,0,0,0,171,
scooby_state_64a9bc|33|1 171,0,0,0,0,0,0,0,0,0,0,0,0,0,0,171,
scooby_state_7a88f0|56|1 171,0,0,0,0,0,0,0,0,0,0,0,0,0,0,171,
scooby_state_64a0e6|47|1 171,0,0,0,0,0,0,0,0,0,0,0,0,0,0,171,
scooby_state_64a0b0|5|1 171,0,0,0,0,0,0,0,0,0,0,0,0,0,0,171,
scooby_state_64a9b6|52|1 171,0,0,0,0,0,0,0,0,0,0,0,0,0,0,171,
scooby_state_64a9b0|10|1 170,0,0,0,0,1,0,0,0,0,0,0,0,0,0,171,
scooby_state_64a9d3|2|1 171,0,0,0,0,0,0,0,0,0,0,0,0,0,0,171,
scooby_state_64a9d3|5|1 170,0,0,0,1,0,0,0,0,0,0,0,0,0,0,171,
scooby_state_64a9b6|8|1 171,0,0,0,0,0,0,0,0,0,0,0,0,0,0,171,
scooby_state_64a5d1|35|-21 171,0,0,0,0,0,0,0,0,0,0,0,0,0,0,171,
scooby_state_64bf70|44|1 170,0,0,0,0,0,0,0,0,1,0,0,0,0,0,171,
scooby_state_65f370|34|1 171,0,0,0,0,0,0,0,0,0,0,0,0,0,0,171,
scooby_state_64a140|49|1 171,0,0,0,0,0,0,0,0,0,0,0,0,0,0,171,
scooby_state_65e6f0|22|1 170,0,0,0,0,0,1,0,0,0,0,0,0,0,0,171,
scooby_state_64a0b6|10|1 170,0,0,0,0,0,0,1,0,0,0,0,0,0,0,171,
scooby_state_64a140|43|1 170,0,0,0,0,0,0,0,0,0,0,0,1,0,0,171,
scooby_state_65dca0|16|1 171,0,0,0,0,0,0,0,0,0,0,0,0,0,0,171,
scooby_state_64a104|44|1 171,0,0,0,0,0,0,0,0,0,0,0,0,0,0,171,
scooby_state_64aa40|38|1 171,0,0,0,0,0,0,0,0,0,0,0,0,0,0,171,
scooby_state_65e6f0|42|1 171,0,0,0,0,0,0,0,0,0,0,0,0,0,0,171,
scooby_state_64bf70|52|1 171,0,0,0,0,0,0,0,0,0,0,0,0,0,0,171,
scooby_state_64a9f1|60|0 170,0,0,0,0,0,0,0,0,1,0,0,0,0,0,171,
scooby_state_64aa02|52|1 170,0,1,0,0,0,0,0,0,0,0,0,0,0,0,171,
scooby_state_64a9b6|57|1 171,0,0,0,0,0,0,0,0,0,0,0,0,0,0,171,
scooby_state_65ebd0|47|1 171,0,0,0,0,0,0,0,0,0,0,0,0,0,0,171,
scooby_state_64a9f1|6|1 171,0,0,0,0,0,0,0,0,0,0,0,0,0,0,171,
scooby_state_64a9ea|38|1 171,0,0,0,0,0,0,0,0,0,0,0,0,0,0,171,
scooby_state_64bf00|1|1 171,0,0,0,0,0,0,0,0,0,0,0,0,0,0,171,
scooby_state_64acdc|50|1 171,0,0,0,0,0,0,0,0,0,0,0,0,0,0,171,
scooby_state_64a9b6|3|1 170,0,0,0,0,0,0,0,0,0,0,0,1,0,0,171,
scooby_state_64a140|62|1 171,0,0,0,0,0,0,0,0,0,0,0,0,0,0,171,
scooby_state_64a0ec|48|1 170,0,0,1,0,0,0,0,0,0,0,0,0,0,0,171,
scooby_state_64a9f1|61|1 171,0,0,0,0,0,0,0,0,0,0,0,0,0,0,171,
scooby_state_64a9b6|49|1 171,0,0,0,0,0,0,0,0,0,0,0,0,0,0,171,
scooby_state_64a0bc|32|1 171,0,0,0,0,0,0,0,0,0,0,0,0,0,0,171,
scooby_state_64a0b0|7|1 170,0,0,1,0,0,0,0,0,0,0,0,0,0,0,171,
scooby_state_65ebd0|23|1 169,0,0,0,0,0,1,0,0,0,0,1,0,0,0,171,
scooby_state_64a9cd|0|0 171,0,0,0,0,0,0,0,0,0,0,0,0,0,0,171,
scooby_state_64a9f1|10|1 171,0,0,0,0,0,0,0,0,0,0,0,0,0,0,171,
scooby_state_64a9b6|6|1 171,0,0,0,0,0,0,0,0,0,0,0,0,0,0,171,
scooby_state_64bf70|8|1 170,0,0,0,1,0,0,0,0,0,0,0,0,0,0,171,
scooby_state_64a9b0|2|1 171,0,0,0,0,0,0,0,0,0,0,0,0,0,0,171,
scooby_state_64a9e4|47|1 171,0,0,0,0,0,0,0,0,0,0,0,0,0,0,171,
scooby_state_64a9cd|62|1 170,0,0,0,0,0,0,0,0,0,1,0,0,0,0,171,
scooby_state_64a0ec|59|1 171,0,0,0,0,0,0,0,0,0,0,0,0,0,0,171,
scooby_state_64a0b6|28|1 171,0,0,0,0,0,0,0,0,0,0,0,0,0,0,171,
scooby_state_64acc0|52|1 171,0,0,0,0,0,0,0,0,0,0,0,0,0,0,171,
scooby_state_64a0bc|29|1 171,0,0,0,0,0,0,0,0,0,0,0,0,0,0,171,
scooby_state_64aa40|35|1 171,0,0,0,0,0,0,0,0,0,0,0,0,0,0,171,
scooby_state_7a88f0|55|1 170,0,0,0,0,0,1,0,0,0,0,0,0,0,0,171,
scooby_state_64aa02|60|1 171,0,0,0,0,0,0,0,0,0,0,0,0,0,0,171,
scooby_state_64a9b6|48|0 171,0,0,0,0,0,0,0,0,0,0,0,0,0,0,171,
scooby_state_64a9e4|37|1 171,0,0,0,0,0,0,0,0,0,0,0,0,0,0,171,
scooby_state_64a0ce|1|1 170,0,0,1,0,0,0,0,0,0,0,0,0,0,0,171,
scooby_state_64a9bc|37|1 171,0,0,0,0,0,0,0,0,0,0,0,0,0,0,171,
scooby_state_64a104|39|1 171,0,0,0,0,0,0,0,0,0,0,0,0,0,0,171,
scooby_state_64a0d4|43|1 171,0,0,0,0,0,0,0,0,0,0,0,0,0,0,171,
scooby_state_65dca0|38|1 170,0,0,0,0,0,0,0,1,0,0,0,0,0,0,171,
scooby_state_65e6f9|60|1 171,0,0,0,0,0,0,0,0,0,0,0,0,0,0,171,
scooby_state_64a0bc|37|1 171,0,0,0,0,0,0,0,0,0,0,0,0,0,0,171,
scooby_state_64a9e4|31|1 171,0,0,0,0,0,0,0,0,0,0,0,0,0,0,171,
scooby_state_64a0e6|50|1 171,0,0,0,0,0,0,0,0,0,0,0,0,0,0,171,
scooby_state_64a0b6|27|1 171,0,0,0,0,0,0,0,0,0,0,0,0,0,0,171,
scooby_state_843168|11|0 170,1,0,0,0,0,0,0,0,0,0,0,0,0,0,171,
scooby_state_64a9bc|35|1 171,0,0,0,0,0,0,0,0,0,0,0,0,0,0,171,
scooby_state_64a9cd|43|1 170,0,0,0,0,0,1,0,0,0,0,0,0,0,0,171,
scooby_state_64a140|53|1 171,0,0,0,0,0,0,0,0,0,0,0,0,0,0,171,
scooby_state_64a9b6|51|1 171,0,0,0,0,0,0,0,0,0,0,0,0,0,0,171,
scooby_state_64aa40|32|1 171,0,0,0,0,0,0,0,0,0,0,0,0,0,0,171,
scooby_state_64a0f2|2|1 169,0,0,0,0,0,0,0,0,1,0,0,0,0,1,171,
scooby_state_64aa40|29|1 171,0,0,0,0,0,0,0,0,0,0,0,0,0,0,171,
scooby_state_64a9b6|61|1 170,0,0,0,0,0,0,0,0,0,0,0,1,0,0,171,
scooby_state_649d16|41|-19 171,0,0,0,0,0,0,0,0,0,0,0,0,0,0,171,
scooby_state_64aa40|30|1 171,0,0,0,0,0,0,0,0,0,0,0,0,0,0,171,
scooby_state_65ebd0|45|1 171,0,0,0,0,0,0,0,0,0,0,0,0,0,0,171,
scooby_state_64a9b6|60|1 171,0,0,0,0,0,0,0,0,0,0,0,0,0,0,171,
scooby_state_7a88f0|5|1 171,0,0,0,0,0,0,0,0,0,0,0,0,0,0,171,
scooby_state_64bf70|5|1 170,0,0,0,1,0,0,0,0,0,0,0,0,0,0,171,
scooby_state_7a88f0|63|1 171,0,0,0,0,0,0,0,0,0,0,0,0,0,0,171,
scooby_state_64a0ec|56|1 170,0,0,0,0,0,1,0,0,0,0,0,0,0,0,171,
scooby_state_64a0e6|59|1 169,0,0,0,0,0,1,1,0,0,0,0,0,0,0,171,
scooby_state_64a9bc|27|1 171,0,0,0,0,0,0,0,0,0,0,0,0,0,0,171,
scooby_state_64a0bc|33|1 170,0,0,0,0,0,0,0,0,0,0,0,1,0,0,171,
scooby_state_65f370|31|1 171,0,0,0,0,0,0,0,0,0,0,0,0,0,0,171,
scooby_state_64a0f2|3|1 171,0,0,0,0,0,0,0,0,0,0,0,0,0,0,171,
scooby_state_64a0e6|58|1 171,0,0,0,0,0,0,0,0,0,0,0,0,0,0,171,
scooby_state_64a9f1|2|1 171,0,0,0,0,0,0,0,0,0,0,0,0,0,0,171,
scooby_state_64a414|39|1 171,0,0,0,0,0,0,0,0,0,0,0,0,0,0,171,
scooby_state_64a0b6|13|1 170,0,0,0,0,0,0,0,0,1,0,0,0,0,0,171,
scooby_state_64a0e6|55|1 171,0,0,0,0,0,0,0,0,0,0,0,0,0,0,171,
scooby_state_65e6f9|53|1 171,0,0,0,0,0,0,0,0,0,0,0,0,0,0,171,
scooby_state_64a9e4|42|1 171,0,0,0,0,0,0,0,0,0,0,0,0,0,0,171,
scooby_state_64aa02|62|1 171,0,0,0,0,0,0,0,0,0,0,0,0,0,0,171,
scooby_state_64a0e6|54|1 170,0,0,0,0,0,0,0,0,1,0,0,0,0,0,171,
scooby_state_64a140|48|1 171,0,0,0,0,0,0,0,0,0,0,0,0,0,0,171,
scooby_state_64aa40|54|1 171,0,0,0,0,0,0,0,0,0,0,0,0,0,0,171,
scooby_state_64aa02|41|1 171,0,0,0,0,0,0,0,0,0,0,0,0,0,0,171,
scooby_state_64acdc|9|1 170,0,0,0,0,0,0,0,0,1,0,0,0,0,0,171,
scooby_state_64aa02|46|1 171,0,0,0,0,0,0,0,0,0,0,0,0,0,0,171,
scooby_state_64a0b0|9|1 169,0,0,1,0,0,0,0,0,0,0,0,0,0,1,171,
scooby_state_64a9b0|58|1 171,0,0,0,0,0,0,0,0,0,0,0,0,0,0,171,
scooby_state_64a9ea|40|1 171,0,0,0,0,0,0,0,0,0,0,0,0,0,0,171,
scooby_state_64bf00|10|1 171,0,0,0,0,0,0,0,0,0,0,0,0,0,0,171,
scooby_state_64a9cd|61|1 171,0,0,0,0,0,0,0,0,0,0,0,0,0,0,171,
scooby_state_64a140|51|1 171,0,0,0,0,0,0,0,0,0,0,0,0,0,0,171,
scooby_state_65f370|17|1 171,0,0,0,0,0,0,0,0,0,0,0,0,0,0,171,
scooby_state_64bf70|60|1 171,0,0,0,0,0,0,0,0,0,0,0,0,0,0,171,
scooby_state_64a0bc|38|1 171,0,0,0,0,0,0,0,0,0,0,0,0,0,0,171,
scooby_state_64a0e6|63|1 170,1,0,0,0,0,0,0,0,0,0,0,0,0,0,171,
scooby_state_64a140|41|1 171,0,0,0,0,0,0,0,0,0,0,0,0,0,0,171,
scooby_state_65dca0|14|1 171,0,0,0,0,0,0,0,0,0,0,0,0,0,0,171,
scooby_state_64a0ce|15|1 171,0,0,0,0,0,0,0,0,0,0,0,0,0,0,171,
scooby_state_64a140|54|1 171,0,0,0,0,0,0,0,0,0,0,0,0,0,0,171,
scooby_state_96156e|53|5 171,0,0,0,0,0,0,0,0,0,0,0,0,0,0,171,
scooby_state_64a9e4|54|1 171,0,0,0,0,0,0,0,0,0,0,0,0,0,0,171,
scooby_state_65f370|15|1 171,0,0,0,0,0,0,0,0,0,0,0,0,0,0,171,
scooby_state_64acc0|55|1 171,0,0,0,0,0,0,0,0,0,0,0,0,0,0,171,
scooby_state_64a0ce|60|1 170,0,0,0,0,0,0,0,0,0,1,0,0,0,0,171,
scooby_state_64a0bc|39|1 171,0,0,0,0,0,0,0,0,0,0,0,0,0,0,171,
scooby_state_64a0e6|4|1 170,1,0,0,0,0,0,0,0,0,0,0,0,0,0,171,
scooby_state_649c91|48|1 171,0,0,0,0,0,0,0,0,0,0,0,0,0,0,171,
scooby_state_64a596|45|1 171,0,0,0,0,0,0,0,0,0,0,0,0,0,0,171,
scooby_state_65e6f9|56|1 170,0,0,0,0,0,0,1,0,0,0,0,0,0,0,171,
scooby_state_64a9e4|26|1 170,0,0,0,0,0,0,0,0,1,0,0,0,0,0,171,
scooby_state_649cb6|59|1 171,0,0,0,0,0,0,0,0,0,0,0,0,0,0,171,
scooby_state_64a9b0|50|1 171,0,0,0,0,0,0,0,0,0,0,0,0,0,0,171,
scooby_state_64a140|63|1 170,0,0,0,0,0,0,0,0,0,1,0,0,0,0,171,
scooby_state_64a9e4|39|1 171,0,0,0,0,0,0,0,0,0,0,0,0,0,0,171,
scooby_state_64a0b6|26|1 171,0,0,0,0,0,0,0,0,0,0,0,0,0,0,171,
scooby_state_649d42|49|-1 171,0,0,0,0,0,0,0,0,0,0,0,0,0,0,171,
scooby_state_64a9cd|55|1 170,0,0,0,1,0,0,0,0,0,0,0,0,0,0,171,
scooby_state_64a9ea|45|1 171,0,0,0,0,0,0,0,0,0,0,0,0,0,0,171,
scooby_state_65e6f0|30|1 171,0,0,0,0,0,0,0,0,0,0,0,0,0,0,171,
scooby_state_65f370|16|1 171,0,0,0,0,0,0,0,0,0,0,0,0,0,0,171,
scooby_state_64a0ce|58|0 171,0,0,0,0,0,0,0,0,0,0,0,0,0,0,171,
scooby_state_64aa40|50|1 171,0,0,0,0,0,0,0,0,0,0,0,0,0,0,171,
scooby_state_64a0bc|27|1 171,0,0,0,0,0,0,0,0,0,0,0,0,0,0,171,
scooby_state_65f370|28|1 170,0,0,1,0,0,0,0,0,0,0,0,0,0,0,171,
scooby_state_64a9b0|9|1 170,0,0,0,0,0,0,0,0,0,0,1,0,0,0,171,
scooby_state_64a140|60|1 170,0,0,1,0,0,0,0,0,0,0,0,0,0,0,171,
scooby_state_64acdc|45|1 170,0,1,0,0,0,0,0,0,0,0,0,0,0,0,171,
scooby_state_64a0e6|5|1 171,0,0,0,0,0,0,0,0,0,0,0,0,0,0,171,
scooby_state_64a9ea|47|1 170,1,0,0,0,0,0,0,0,0,0,0,0,0,0,171,
scooby_state_64a9cd|4|1 171,0,0,0,0,0,0,0,0,0,0,0,0,0,0,171,
scooby_state_64aa40|45|1 171,0,0,0,0,0,0,0,0,0,0,0,0,0,0,171,
scooby_state_64a9e4|58|1 171,0,0,0,0,0,0,0,0,0,0,0,0,0,0,171,
scooby_state_65ebd0|22|1 171,0,0,0,0,0,0,0,0,0,0,0,0,0,0,171,
scooby_state_64a9f1|3|1 170,0,1,0,0,0,0,0,0,0,0,0,0,0,0,171,
scooby_state_65e6f0|38|1 171,0,0,0,0,0,0,0,0,0,0,0,0,0,0,171,
scooby_state_649bdb|39|0 171,0,0,0,0,0,0,0,0,0,0,0,0,0,0,171,
scooby_state_64a40e|42|1 171,0,0,0,0,0,0,0,0,0,0,0,0,0,0,171,
scooby_state_64a9f1|63|1 170,0,0,0,0,0,0,0,0,0,0,0,1,0,0,171,
scooby_state_64a9e4|43|1 170,0,1,0,0,0,0,0,0,0,0,0,0,0,0,171,
scooby_state_64a0bc|34|1 171,0,0,0,0,0,0,0,0,0,0,0,0,0,0,171,
scooby_state_65e6f0|16|1 171,0,0,0,0,0,0,0,0,0,0,0,0,0,0,171,
scooby_state_64a9e4|29|1 171,0,0,0,0,0,0,0,0,0,0,0,0,0,0,171,
scooby_state_65dca0|25|1 171,0,0,0,0,0,0,0,0,0,0,0,0,0,0,171,
scooby_state_64a0b0|3|1 170,0,0,0,0,0,0,0,1,0,0,0,0,0,0,171,
scooby_state_843168|34|0 171,0,0,0,0,0,0,0,0,0,0,0,0,0,0,171,
scooby_state_64a9e4|52|1 171,0,0,0,0,0,0,0,0,0,0,0,0,0,0,171,
scooby_state_64a9b0|53|1 171,0,0,0,0,0,0,0,0,0,0,0,0,0,0,171,
scooby_state_64a0d4|41|1 171,0,0,0,0,0,0,0,0,0,0,0,0,0,0,171,
scooby_state_64a0d4|49|1 170,0,0,1,0,0,0,0,0,0,0,0,0,0,0,171,
scooby_state_64a9ea|33|1 171,0,0,0,0,0,0,0,0,0,0,0,0,0,0,171,
scooby_state_64a0b6|12|1 171,0,0,0,0,0,0,0,0,0,0,0,0,0,0,171,
scooby_state_65f370|45|1 171,0,0,0,0,0,0,0,0,0,0,0,0,0,0,171,
scooby_state_64a0f2|62|1 171,0,0,0,0,0,0,0,0,0,0,0,0,0,0,171,
scooby_state_65e6f0|26|1 171,0,0,0,0,0,0,0,0,0,0,0,0,0,0,171,
scooby_state_64a9b0|6|1 171,0,0,0,0,0,0,0,0,0,0,0,0,0,0,171,
scooby_state_64a5e0|36|1 171,0,0,0,0,0,0,0,0,0,0,0,0,0,0,171,
scooby_state_64a9b6|0|0 171,0,0,0,0,0,0,0,0,0,0,0,0,0,0,171,
scooby_state_64a140|45|1 171,0,0,0,0,0,0,0,0,0,0,0,0,0,0,171,
scooby_state_65f370|14|1 171,0,0,0,0,0,0,0,0,0,0,0,0,0,0,171,
scooby_state_64a0e6|43|0 171,0,0,0,0,0,0,0,0,0,0,0,0,0,0,171,
scooby_state_64aa40|31|1 170,0,0,0,0,1,0,0,0,0,0,0,0,0,0,171,
scooby_state_64a9ea|43|1 171,0,0,0,0,0,0,0,0,0,0,0,0,0,0,171,
scooby_state_7a88f0|3|1 171,0,0,0,0,0,0,0,0,0,0,0,0,0,0,171,
scooby_state_64a9b0|46|1 171,0,0,0,0,0,0,0,0,0,0,0,0,0,0,171,
scooby_state_65dca0|46|1 171,0,0,0,0,0,0,0,0,0,0,0,0,0,0,171,
scooby_state_64a9bc|28|1 171,0,0,0,0,0,0,0,0,0,0,0,0,0,0,171,
scooby_state_64a0ec|57|1 171,0,0,0,0,0,0,0,0,0,0,0,0,0,0,171,
scooby_state_64a9e4|30|1 171,0,0,0,0,0,0,0,0,0,0,0,0,0,0,171,
scooby_state_64a0e6|53|1 170,0,0,0,0,0,0,0,0,1,0,0,0,0,0,171,
scooby_state_64a9cd|1|1 171,0,0,0,0,0,0,0,0,0,0,0,0,0,0,171,
scooby_state_64acdc|10|1 171,0,0,0,0,0,0,0,0,0,0,0,0,0,0,171,
scooby_state_64aa02|48|1 171,0,0,0,0,0,0,0,0,0,0,0,0,0,0,171,
scooby_state_64a9ea|42|1 171,0,0,0,0,0,0,0,0,0,0,0,0,0,0,171,
scooby_state_7a88f0|11|1 171,0,0,0,0,0,0,0,0,0,0,0,0,0,0,171,
scooby_state_64a9ea|48|1 171,0,0,0,0,0,0,0,0,0,0,0,0,0,0,171,
scooby_state_65f370|27|1 171,0,0,0,0,0,0,0,0,0,0,0,0,0,0,171,
scooby_state_64a0d4|39|1 171,0,0,0,0,0,0,0,0,0,0,0,0,0,0,171,
scooby_state_64a0f2|8|1 171,0,0,0,0,0,0,0,0,0,0,0,0,0,0,171,
scooby_state_64a9b0|7|1 170,0,0,0,0,0,0,1,0,0,0,0,0,0,0,171,
scooby_state_65e6f9|45|1 171,0,0,0,0,0,0,0,0,0,0,0,0,0,0,171,
scooby_state_64a9e4|40|1 171,0,0,0,0,0,0,0,0,0,0,0,0,0,0,171,
scooby_state_64a140|57|1 170,0,0,0,0,0,0,0,0,0,0,0,0,0,1,171,
scooby_state_64a0f2|4|1 171,0,0,0,0,0,0,0,0,0,0,0,0,0,0,171,
scooby_state_64a9b0|52|1 171,0,0,0,0,0,0,0,0,0,0,0,0,0,0,171,
scooby_state_64a9b6|55|1 170,0,0,0,0,0,0,0,0,0,0,0,0,0,1,171,
scooby_state_64a0ec|47|1 171,0,0,0,0,0,0,0,0,0,0,0,0,0,0,171,
scooby_state_65dca0|24|1 171,0,0,0,0,0,0,0,0,0,0,0,0,0,0,171,
scooby_state_65ebd0|43|1 171,0,0,0,0,0,0,0,0,0,0,0,0,0,0,171,
scooby_state_64a0ce|61|1 170,0,0,0,0,0,0,0,0,0,0,0,1,0,0,171,
scooby_state_64a0ce|5|1 171,0,0,0,0,0,0,0,0,0,0,0,0,0,0,171,
scooby_state_64a9e4|45|1 171,0,0,0,0,0,0,0,0,0,0,0,0,0,0,171,
scooby_state_64a9f1|9|1 171,0,0,0,0,0,0,0,0,0,0,0,0,0,0,171,
scooby_state_65f370|37|1 170,0,0,0,0,0,0,1,0,0,0,0,0,0,0,171,
scooby_state_64a0b6|6|1 171,0,0,0,0,0,0,0,0,0,0,0,0,0,0,171,
scooby_state_64acdc|49|1 170,0,1,0,0,0,0,0,0,0,0,0,0,0,0,171,
scooby_state_64a9bc|40|1 171,0,0,0,0,0,0,0,0,0,0,0,0,0,0,171,
scooby_state_64a0bc|28|1 170,0,0,0,0,0,0,1,0,0,0,0,0,0,0,171,
scooby_state_64a9ea|39|1 171,0,0,0,0,0,0,0,0,0,0,0,0,0,0,171,
scooby_state_65e6f0|46|1 170,0,0,1,0,0,0,0,0,0,0,0,0,0,0,171,
scooby_state_7a88f0|57|1 171,0,0,0,0,0,0,0,0,0,0,0,0,0,0,171,
scooby_state_64a9b0|4|1 170,0,0,0,0,0,0,1,0,0,0,0,0,0,0,171,
scooby_state_65e6f0|14|1 170,0,0,0,0,1,0,0,0,0,0,0,0,0,0,171,
scooby_state_64bf70|11|1 170,0,0,0,0,0,0,0,0,0,0,0,0,0,1,171,
scooby_state_65ebd0|16|1 171,0,0,0,0,0,0,0,0,0,0,0,0,0,0,171,
scooby_state_64a9b6|2|1 169,0,0,0,0,0,0,1,0,0,0,0,1,0,0,171,
scooby_state_64a9b6|10|1 171,0,0,0,0,0,0,0,0,0,0,0,0,0,0,171,
scooby_state_64acc0|53|1 170,0,0,0,0,0,0,1,0,0,0,0,0,0,0,171,
scooby_state_65dca0|41|1 170,0,0,0,0,0,0,1,0,0,0,0,0,0,0,171,
scooby_state_64bf00|56|1 171,0,0,0,0,0,0,0,0,0,0,0,0,0,0,171,
scooby_state_64acdc|56|1 171,0,0,0,0,0,0,0,0,0,0,0,0,0,0,171,
scooby_state_64a0f2|9|1 171,0,0,0,0,0,0,0,0,0,0,0,0,0,0,171,
scooby_state_65dca0|26|1 171,0,0,0,0,0,0,0,0,0,0,0,0,0,0,171,
scooby_state_65ebd0|17|1 171,0,0,0,0,0,0,0,0,0,0,0,0,0,0,171,
scooby_state_7f9229|15|0 171,0,0,0,0,0,0,0,0,0,0,0,0,0,0,171,
scooby_state_64a9bc|29|1 171,0,0,0,0,0,0,0,0,0,0,0,0,0,0,171,
scooby_state_65dca0|44|1 171,0,0,0,0,0,0,0,0,0,0,0,0,0,0,171,
scooby_state_64a9b6|56|1 171,0,0,0,0,0,0,0,0,0,0,0,0,0,0,171,
scooby_state_64a0e6|49|1 170,0,0,1,0,0,0,0,0,0,0,0,0,0,0,171,
scooby_state_64bf00|13|1 171,0,0,0,0,0,0,0,0,0,0,0,0,0,0,171,
scooby_state_64a0b6|5|1 171,0,0,0,0,0,0,0,0,0,0,0,0,0,0,171,
[...]
scooby_state_876803|32|1 1,0,0,0,0,0,0,0,0,0,0,0,0,0,0,1,
scooby_state_788765|9|-1 1,0,0,0,0,0,0,0,0,0,0,0,0,0,0,1,
scooby_state_875573|61|7 1,0,0,0,0,0,0,0,0,0,0,0,0,0,0,1,
scooby_state_7a4ef2|61|1 1,0,0,0,0,0,0,0,0,0,0,0,0,0,0,1,
scooby_state_875907|43|1 1,0,0,0,0,0,0,0,0,0,0,0,0,0,0,1,
scooby_state_797121|62|2 1,0,0,0,0,0,0,0,0,0,0,0,0,0,0,1,
scooby_state_878018|21|0 1,0,0,0,0,0,0,0,0,0,0,0,0,0,0,1,
scooby_state_78f309|0|0 1,0,0,0,0,0,0,0,0,0,0,0,0,0,0,1,
scooby_state_786250|46|5 1,0,0,0,0,0,0,0,0,0,0,0,0,0,0,1,
scooby_state_92a76e|9|-12 1,0,0,0,0,0,0,0,0,0,0,0,0,0,0,1,
scooby_state_7d65fb|61|1 1,0,0,0,0,0,0,0,0,0,0,0,0,0,0,1,
scooby_state_78ec19|0|-47 1,0,0,0,0,0,0,0,0,0,0,0,0,0,0,1,
scooby_state_92a744|59|25 1,0,0,0,0,0,0,0,0,0,0,0,0,0,0,1,
scooby_state_79640e|12|2 1,0,0,0,0,0,0,0,0,0,0,0,0,0,0,1,
scooby_state_78f305|17|15 1,0,0,0,0,0,0,0,0,0,0,0,0,0,0,1,
scooby_state_87ab70|51|8 1,0,0,0,0,0,0,0,0,0,0,0,0,0,0,1,
scooby_state_78fd39|62|-1 1,0,0,0,0,0,0,0,0,0,0,0,0,0,0,1,
scooby_state_977499|36|3 1,0,0,0,0,0,0,0,0,0,0,0,0,0,0,1,
scooby_state_7a3b46|54|2 1,0,0,0,0,0,0,0,0,0,0,0,0,0,0,1,
scooby_state_7a4c04|48|1 1,0,0,0,0,0,0,0,0,0,0,0,0,0,0,1,
scooby_state_795fa0|39|2 1,0,0,0,0,0,0,0,0,0,0,0,0,0,0,1,
scooby_state_77ee6a|37|1 1,0,0,0,0,0,0,0,0,0,0,0,0,0,0,1,
scooby_state_78b560|1|1 1,0,0,0,0,0,0,0,0,0,0,0,0,0,0,1,
scooby_state_77fd90|16|1 1,0,0,0,0,0,0,0,0,0,0,0,0,0,0,1,
scooby_state_79153b|47|0 1,0,0,0,0,0,0,0,0,0,0,0,0,0,0,1,
scooby_state_786584|22|1 1,0,0,0,0,0,0,0,0,0,0,0,0,0,0,1,
scooby_state_7d6a00|51|28 1,0,0,0,0,0,0,0,0,0,0,0,0,0,0,1,
scooby_state_77e560|40|1 1,0,0,0,0,0,0,0,0,0,0,0,0,0,0,1,
scooby_state_87a86a|24|5 1,0,0,0,0,0,0,0,0,0,0,0,0,0,0,1,
scooby_state_876390|38|1 1,0,0,0,0,0,0,0,0,0,0,0,0,0,0,1,
scooby_state_827c18|39|0 1,0,0,0,0,0,0,0,0,0,0,0,0,0,0,1,
scooby_state_87c2b0|10|1 1,0,0,0,0,0,0,0,0,0,0,0,0,0,0,1,
scooby_state_7a1514|0|-18 1,0,0,0,0,0,0,0,0,0,0,0,0,0,0,1,
scooby_state_8737b3|58|6 1,0,0,0,0,0,0,0,0,0,0,0,0,0,0,1,
scooby_state_87a86a|47|9 1,0,0,0,0,0,0,0,0,0,0,0,0,0,0,1,
scooby_state_77fec1|59|1 1,0,0,0,0,0,0,0,0,0,0,0,0,0,0,1,
scooby_state_86da8d|44|0 1,0,0,0,0,0,0,0,0,0,0,0,0,0,0,1,
scooby_state_7d5915|62|2 1,0,0,0,0,0,0,0,0,0,0,0,0,0,0,1,
scooby_state_797870|18|1 1,0,0,0,0,0,0,0,0,0,0,0,0,0,0,1,
scooby_state_92a744|5|-20 1,0,0,0,0,0,0,0,0,0,0,0,0,0,0,1,
scooby_state_92a744|53|32 1,0,0,0,0,0,0,0,0,0,0,0,0,0,0,1,
scooby_state_873220|25|1 1,0,0,0,0,0,0,0,0,0,0,0,0,0,0,1,
scooby_state_791569|10|-6 1,0,0,0,0,0,0,0,0,0,0,0,0,0,0,1,
scooby_state_79349b|21|-5 1,0,0,0,0,0,0,0,0,0,0,0,0,0,0,1,
scooby_state_9615e9|23|1 1,0,0,0,0,0,0,0,0,0,0,0,0,0,0,1,
scooby_state_87da67|30|3 1,0,0,0,0,0,0,0,0,0,0,0,0,0,0,1,
scooby_state_78fd2c|8|-47 1,0,0,0,0,0,0,0,0,0,0,0,0,0,0,1,
scooby_state_977499|22|-1 1,0,0,0,0,0,0,0,0,0,0,0,0,0,0,1,
scooby_state_780707|34|2 1,0,0,0,0,0,0,0,0,0,0,0,0,0,0,1,
scooby_state_796e31|2|-7 1,0,0,0,0,0,0,0,0,0,0,0,0,0,0,1,
scooby_state_8761e0|18|1 1,0,0,0,0,0,0,0,0,0,0,0,0,0,0,1,
scooby_state_7d6a0b|18|7 1,0,0,0,0,0,0,0,0,0,0,0,0,0,0,1,
scooby_state_78039a|18|7 1,0,0,0,0,0,0,0,0,0,0,0,0,0,0,1,
scooby_state_87a86a|61|7 1,0,0,0,0,0,0,0,0,0,0,0,0,0,0,1,
scooby_state_872dc0|14|1 1,0,0,0,0,0,0,0,0,0,0,0,0,0,0,1,
scooby_state_8763bd|31|1 1,0,0,0,0,0,0,0,0,0,0,0,0,0,0,1,
scooby_state_78ec19|14|1 1,0,0,0,0,0,0,0,0,0,0,0,0,0,0,1,
scooby_state_7eee1a|50|-7 1,0,0,0,0,0,0,0,0,0,0,0,0,0,0,1,
scooby_state_92a76e|42|30 1,0,0,0,0,0,0,0,0,0,0,0,0,0,0,1,
scooby_state_874200|8|1 1,0,0,0,0,0,0,0,0,0,0,0,0,0,0,1,
scooby_state_86da8d|50|5 1,0,0,0,0,0,0,0,0,0,0,0,0,0,0,1,
scooby_state_87a986|38|1 1,0,0,0,0,0,0,0,0,0,0,0,0,0,0,1,
scooby_state_873220|30|1 1,0,0,0,0,0,0,0,0,0,0,0,0,0,0,1,
scooby_state_92a732|21|18 1,0,0,0,0,0,0,0,0,0,0,0,0,0,0,1,
scooby_state_878895|15|5 1,0,0,0,0,0,0,0,0,0,0,0,0,0,0,1,
scooby_state_788782|30|1 1,0,0,0,0,0,0,0,0,0,0,0,0,0,0,1,
scooby_state_7d5915|40|-23 1,0,0,0,0,0,0,0,0,0,0,0,0,0,0,1,
scooby_state_87ac02|48|1 1,0,0,0,0,0,0,0,0,0,0,0,0,0,0,1,
scooby_state_7a4f81|3|2 1,0,0,0,0,0,0,0,0,0,0,0,0,0,0,1,
scooby_state_794cbd|3|1 1,0,0,0,0,0,0,0,0,0,0,0,0,0,0,1,
scooby_state_77c8c3|35|1 1,0,0,0,0,0,0,0,0,0,0,0,0,0,0,1,
scooby_state_872541|21|1 1,0,0,0,0,0,0,0,0,0,0,0,0,0,0,1,
scooby_state_7975a3|63|1 1,0,0,0,0,0,0,0,0,0,0,0,0,0,0,1,
scooby_state_879be8|26|3 1,0,0,0,0,0,0,0,0,0,0,0,0,0,0,1,
scooby_state_87be44|57|1 1,0,0,0,0,0,0,0,0,0,0,0,0,0,0,1,
scooby_state_78b943|37|1 1,0,0,0,0,0,0,0,0,0,0,0,0,0,0,1,
scooby_state_77c2da|46|4 1,0,0,0,0,0,0,0,0,0,0,0,0,0,0,1,
scooby_state_92a744|44|23 1,0,0,0,0,0,0,0,0,0,0,0,0,0,0,1,
scooby_state_875730|44|1 1,0,0,0,0,0,0,0,0,0,0,0,0,0,0,1,
scooby_state_77cd47|48|5 1,0,0,0,0,0,0,0,0,0,0,0,0,0,0,1,
scooby_state_64b710|59|53 1,0,0,0,0,0,0,0,0,0,0,0,0,0,0,1,
scooby_state_92a76e|24|-19 1,0,0,0,0,0,0,0,0,0,0,0,0,0,0,1,
scooby_state_92a732|11|6 1,0,0,0,0,0,0,0,0,0,0,0,0,0,0,1,
scooby_state_825db0|49|6 1,0,0,0,0,0,0,0,0,0,0,0,0,0,0,1,
scooby_state_780a19|45|0 1,0,0,0,0,0,0,0,0,0,0,0,0,0,0,1,
scooby_state_7d7354|39|29 1,0,0,0,0,0,0,0,0,0,0,0,0,0,0,1,
scooby_state_8737b3|51|6 1,0,0,0,0,0,0,0,0,0,0,0,0,0,0,1,
scooby_state_878018|14|3 1,0,0,0,0,0,0,0,0,0,0,0,0,0,0,1,
scooby_state_8767c0|31|1 1,0,0,0,0,0,0,0,0,0,0,0,0,0,0,1,
scooby_state_7eedee|23|2 1,0,0,0,0,0,0,0,0,0,0,0,0,0,0,1,
scooby_state_7d6a17|56|1 1,0,0,0,0,0,0,0,0,0,0,0,0,0,0,1,
scooby_state_7a3de6|46|25 1,0,0,0,0,0,0,0,0,0,0,0,0,0,0,1,
scooby_state_7d7382|31|2 1,0,0,0,0,0,0,0,0,0,0,0,0,0,0,1,
scooby_state_875fbc|2|0 1,0,0,0,0,0,0,0,0,0,0,0,0,0,0,1,
scooby_state_92a76e|34|7 1,0,0,0,0,0,0,0,0,0,0,0,0,0,0,1,
scooby_state_7d6609|15|7 1,0,0,0,0,0,0,0,0,0,0,0,0,0,0,1,
scooby_state_7896c8|38|-2 1,0,0,0,0,0,0,0,0,0,0,0,0,0,0,1,
scooby_state_64aa53|40|26 1,0,0,0,0,0,0,0,0,0,0,0,0,0,0,1,
scooby_state_787b15|58|1 1,0,0,0,0,0,0,0,0,0,0,0,0,0,0,1,
scooby_state_8736ab|26|1 1,0,0,0,0,0,0,0,0,0,0,0,0,0,0,1,
scooby_state_77c16f|23|4 1,0,0,0,0,0,0,0,0,0,0,0,0,0,0,1,
scooby_state_780395|10|-51 1,0,0,0,0,0,0,0,0,0,0,0,0,0,0,1,
scooby_state_873220|2|1 1,0,0,0,0,0,0,0,0,0,0,0,0,0,0,1,
scooby_state_87dca3|4|1 1,0,0,0,0,0,0,0,0,0,0,0,0,0,0,1,
scooby_state_873899|19|0 1,0,0,0,0,0,0,0,0,0,0,0,0,0,0,1,
scooby_state_78050e|45|1 1,0,0,0,0,0,0,0,0,0,0,0,0,0,0,1,
scooby_state_793026|56|28 1,0,0,0,0,0,0,0,0,0,0,0,0,0,0,1,
scooby_state_977440|17|2 1,0,0,0,0,0,0,0,0,0,0,0,0,0,0,1,
scooby_state_794cd6|1|-47 1,0,0,0,0,0,0,0,0,0,0,0,0,0,0,1,
scooby_state_879218|50|1 1,0,0,0,0,0,0,0,0,0,0,0,0,0,0,1,
scooby_state_792f94|46|46 1,0,0,0,0,0,0,0,0,0,0,0,0,0,0,1,
scooby_state_87480b|29|1 1,0,0,0,0,0,0,0,0,0,0,0,0,0,0,1,
scooby_state_87a86a|47|7 1,0,0,0,0,0,0,0,0,0,0,0,0,0,0,1,
scooby_state_874873|35|1 1,0,0,0,0,0,0,0,0,0,0,0,0,0,0,1,
scooby_state_92a744|19|0 1,0,0,0,0,0,0,0,0,0,0,0,0,0,0,1,
scooby_state_92a732|13|-50 1,0,0,0,0,0,0,0,0,0,0,0,0,0,0,1,
scooby_state_92a744|2|-61 1,0,0,0,0,0,0,0,0,0,0,0,0,0,0,1,
scooby_state_8748c2|59|1 1,0,0,0,0,0,0,0,0,0,0,0,0,0,0,1,
scooby_state_875f63|0|0 1,0,0,0,0,0,0,0,0,0,0,0,0,0,0,1,
scooby_state_830940|62|30 1,0,0,0,0,0,0,0,0,0,0,0,0,0,0,1,
scooby_state_7d73d0|14|1 1,0,0,0,0,0,0,0,0,0,0,0,0,0,0,1,
scooby_state_87a934|54|-9 1,0,0,0,0,0,0,0,0,0,0,0,0,0,0,1,
scooby_state_875925|43|1 1,0,0,0,0,0,0,0,0,0,0,0,0,0,0,1,
scooby_state_7d5994|14|-47 1,0,0,0,0,0,0,0,0,0,0,0,0,0,0,1,
scooby_state_87a934|56|-6 1,0,0,0,0,0,0,0,0,0,0,0,0,0,0,1,
scooby_state_874946|8|1 1,0,0,0,0,0,0,0,0,0,0,0,0,0,0,1,
scooby_state_977492|38|3 1,0,0,0,0,0,0,0,0,0,0,0,0,0,0,1,
scooby_state_7a2a87|42|1 1,0,0,0,0,0,0,0,0,0,0,0,0,0,0,1,
scooby_state_7eedb0|62|0 1,0,0,0,0,0,0,0,0,0,0,0,0,0,0,1,
scooby_state_793c80|52|-11 1,0,0,0,0,0,0,0,0,0,0,0,0,0,0,1,
scooby_state_785dc3|55|1 0,0,0,0,0,1,0,0,0,0,0,0,0,0,0,1,
scooby_state_780520|50|4 1,0,0,0,0,0,0,0,0,0,0,0,0,0,0,1,
scooby_state_77bf2b|39|2 1,0,0,0,0,0,0,0,0,0,0,0,0,0,0,1,
scooby_state_87a934|48|1 1,0,0,0,0,0,0,0,0,0,0,0,0,0,0,1,
scooby_state_879f82|62|1 1,0,0,0,0,0,0,0,0,0,0,0,0,0,0,1,
scooby_state_78f340|57|7 1,0,0,0,0,0,0,0,0,0,0,0,0,0,0,1,
scooby_state_7919c2|39|1 1,0,0,0,0,0,0,0,0,0,0,0,0,0,0,1,
scooby_state_794cd6|31|3 1,0,0,0,0,0,0,0,0,0,0,0,0,0,0,1,
scooby_state_875893|43|1 1,0,0,0,0,0,0,0,0,0,0,0,0,0,0,1,
scooby_state_872dc0|29|1 1,0,0,0,0,0,0,0,0,0,0,0,0,0,0,1,
scooby_state_7975a3|12|1 1,0,0,0,0,0,0,0,0,0,0,0,0,0,0,1,
scooby_state_87b869|63|0 1,0,0,0,0,0,0,0,0,0,0,0,0,0,0,1,
scooby_state_874802|3|-53 1,0,0,0,0,0,0,0,0,0,0,0,0,0,0,1,
scooby_state_7d73d0|4|1 1,0,0,0,0,0,0,0,0,0,0,0,0,0,0,1,
scooby_state_92a76e|21|-17 1,0,0,0,0,0,0,0,0,0,0,0,0,0,0,1,
scooby_state_8747d4|39|1 1,0,0,0,0,0,0,0,0,0,0,0,0,0,0,1,
scooby_state_92a744|38|38 1,0,0,0,0,0,0,0,0,0,0,0,0,0,0,1,
scooby_state_7eedee|15|8 1,0,0,0,0,0,0,0,0,0,0,0,0,0,0,1,
scooby_state_872af3|43|6 1,0,0,0,0,0,0,0,0,0,0,0,0,0,0,1,
scooby_state_87a86a|51|2 1,0,0,0,0,0,0,0,0,0,0,0,0,0,0,1,
scooby_state_7eedee|34|9 1,0,0,0,0,0,0,0,0,0,0,0,0,0,0,1,
scooby_state_64b710|61|53 1,0,0,0,0,0,0,0,0,0,0,0,0,0,0,1,
scooby_state_780395|47|-16 1,0,0,0,0,0,0,0,0,0,0,0,0,0,0,1,
scooby_state_7d65b3|2|-48 1,0,0,0,0,0,0,0,0,0,0,0,0,0,0,1,
scooby_state_873220|54|1 1,0,0,0,0,0,0,0,0,0,0,0,0,0,0,1,
scooby_state_8758bc|10|-53 1,0,0,0,0,0,0,0,0,0,0,0,0,0,0,1,
scooby_state_7a4000|13|1 1,0,0,0,0,0,0,0,0,0,0,0,0,0,0,1,
scooby_state_7d5947|6|-57 1,0,0,0,0,0,0,0,0,0,0,0,0,0,0,1,
scooby_state_87bb41|45|0 1,0,0,0,0,0,0,0,0,0,0,0,0,0,0,1,
scooby_state_796e31|5|2 1,0,0,0,0,0,0,0,0,0,0,0,0,0,0,1,
scooby_state_87aa38|39|4 1,0,0,0,0,0,0,0,0,0,0,0,0,0,0,1,
scooby_state_87a86a|38|24 1,0,0,0,0,0,0,0,0,0,0,0,0,0,0,1,
scooby_state_7938a7|33|-30 1,0,0,0,0,0,0,0,0,0,0,0,0,0,0,1,
scooby_state_796927|59|1 1,0,0,0,0,0,0,0,0,0,0,0,0,0,0,1,
scooby_state_87dc9a|37|-21 1,0,0,0,0,0,0,0,0,0,0,0,0,0,0,1,
scooby_state_7eee1a|17|-7 1,0,0,0,0,0,0,0,0,0,0,0,0,0,0,1,
scooby_state_875ffa|12|1 1,0,0,0,0,0,0,0,0,0,0,0,0,0,0,1,
scooby_state_7d7365|46|14 1,0,0,0,0,0,0,0,0,0,0,0,0,0,0,1,
scooby_state_795fa0|32|1 1,0,0,0,0,0,0,0,0,0,0,0,0,0,0,1,
scooby_state_873f04|60|0 1,0,0,0,0,0,0,0,0,0,0,0,0,0,0,1,
scooby_state_92a76e|22|-7 1,0,0,0,0,0,0,0,0,0,0,0,0,0,0,1,
scooby_state_87aa38|37|5 1,0,0,0,0,0,0,0,0,0,0,0,0,0,0,1,
scooby_state_64b810|54|53 1,0,0,0,0,0,0,0,0,0,0,0,0,0,0,1,
scooby_state_78f160|27|0 1,0,0,0,0,0,0,0,0,0,0,0,0,0,0,1,
scooby_state_875ffa|50|6 1,0,0,0,0,0,0,0,0,0,0,0,0,0,0,1,
scooby_state_92a76e|18|-17 1,0,0,0,0,0,0,0,0,0,0,0,0,0,0,1,
scooby_state_64e4ef|15|7 1,0,0,0,0,0,0,0,0,0,0,0,0,0,0,1,
scooby_state_77c2da|1|0 1,0,0,0,0,0,0,0,0,0,0,0,0,0,0,1,
scooby_state_92a744|45|-12 1,0,0,0,0,0,0,0,0,0,0,0,0,0,0,1,
scooby_state_64becb|62|8 1,0,0,0,0,0,0,0,0,0,0,0,0,0,0,1,
scooby_state_65ebd9|43|4 1,0,0,0,0,0,0,0,0,0,0,0,0,0,0,1,
scooby_state_87b860|42|29 1,0,0,0,0,0,0,0,0,0,0,0,0,0,0,1,
scooby_state_92a744|8|-43 1,0,0,0,0,0,0,0,0,0,0,0,0,0,0,1,
scooby_state_8747d4|23|1 1,0,0,0,0,0,0,0,0,0,0,0,0,0,0,1,
scooby_state_7f94a0|21|1 1,0,0,0,0,0,0,0,0,0,0,0,0,0,0,1,
scooby_state_92a744|29|-10 1,0,0,0,0,0,0,0,0,0,0,0,0,0,0,1,
scooby_state_874873|47|1 1,0,0,0,0,0,0,0,0,0,0,0,0,0,0,1,
scooby_state_875907|45|1 1,0,0,0,0,0,0,0,0,0,0,0,0,0,0,1,
scooby_state_7a3b46|12|0 1,0,0,0,0,0,0,0,0,0,0,0,0,0,0,1,
scooby_state_77c0cb|58|3 1,0,0,0,0,0,0,0,0,0,0,0,0,0,0,1,
scooby_state_873ce0|16|-47 1,0,0,0,0,0,0,0,0,0,0,0,0,0,0,1,
scooby_state_87cf46|61|1 1,0,0,0,0,0,0,0,0,0,0,0,0,0,0,1,
scooby_state_7a3fd1|3|1 1,0,0,0,0,0,0,0,0,0,0,0,0,0,0,1,
scooby_state_8764d0|32|1 1,0,0,0,0,0,0,0,0,0,0,0,0,0,0,1,
scooby_state_77c701|28|1 1,0,0,0,0,0,0,0,0,0,0,0,0,0,0,1,
scooby_state_7a44d4|14|1 1,0,0,0,0,0,0,0,0,0,0,0,0,0,0,1,
scooby_state_878895|9|-53 1,0,0,0,0,0,0,0,0,0,0,0,0,0,0,1,
scooby_state_873ce0|46|3 1,0,0,0,0,0,0,0,0,0,0,0,0,0,0,1,
scooby_state_794cd6|14|-47 1,0,0,0,0,0,0,0,0,0,0,0,0,0,0,1,
scooby_state_92a76e|32|4 1,0,0,0,0,0,0,0,0,0,0,0,0,0,0,1,
scooby_state_7859f9|55|10 1,0,0,0,0,0,0,0,0,0,0,0,0,0,0,1,
scooby_state_92a732|13|3 1,0,0,0,0,0,0,0,0,0,0,0,0,0,0,1,
scooby_state_875958|8|1 1,0,0,0,0,0,0,0,0,0,0,0,0,0,0,1,
scooby_state_780395|50|-13 1,0,0,0,0,0,0,0,0,0,0,0,0,0,0,1,
scooby_state_92a744|57|7 1,0,0,0,0,0,0,0,0,0,0,0,0,0,0,1,
scooby_state_8751e0|19|1 1,0,0,0,0,0,0,0,0,0,0,0,0,0,0,1,
scooby_state_7eed9d|35|4 1,0,0,0,0,0,0,0,0,0,0,0,0,0,0,1,
scooby_state_786404|47|0 1,0,0,0,0,0,0,0,0,0,0,0,0,0,0,1,
scooby_state_92a744|7|-44 1,0,0,0,0,0,0,0,0,0,0,0,0,0,0,1,
scooby_state_92a76e|50|19 1,0,0,0,0,0,0,0,0,0,0,0,0,0,0,1,
scooby_state_7eedc4|47|6 1,0,0,0,0,0,0,0,0,0,0,0,0,0,0,1,
scooby_state_7d78ae|61|48 1,0,0,0,0,0,0,0,0,0,0,0,0,0,0,1,
scooby_state_92a744|0|-44 1,0,0,0,0,0,0,0,0,0,0,0,0,0,0,1,
scooby_state_825ca0|41|4 1,0,0,0,0,0,0,0,0,0,0,0,0,0,0,1,
scooby_state_77bf38|60|3 1,0,0,0,0,0,0,0,0,0,0,0,0,0,0,1,
scooby_state_87a86a|57|5 1,0,0,0,0,0,0,0,0,0,0,0,0,0,0,1,
scooby_state_78e5f0|9|-46 1,0,0,0,0,0,0,0,0,0,0,0,0,0,0,1,
scooby_state_780a19|4|2 1,0,0,0,0,0,0,0,0,0,0,0,0,0,0,1,
scooby_state_7d6609|4|4 0,0,0,0,0,0,0,0,0,0,0,0,0,1,0,1,

scooby_action_0_deg_dist 0,783,0,0,0,0,0,0,0,0,0,0,0,0,0,0,
scooby_action_12_deg_dist 0,561,1,0,0,0,0,0,0,0,0,0,0,0,0,0,
scooby_action_3_deg_dist 0,601,3,0,0,0,0,0,0,0,0,0,0,0,0,0,
scooby_action_32_deg_dist 0,434,0,0,0,0,0,0,0,0,0,0,0,0,0,0,
scooby_action_5_deg_dist 0,560,4,0,0,0,0,0,0,0,0,0,0,0,0,0,
scooby_action_1_deg_dist 0,190442,83863,0,182499,0,1386989,0,0,0,0,0,0,0,0,0,
scooby_action_30_deg_dist 0,598,0,0,0,0,0,0,0,0,0,0,0,0,0,0,
scooby_action_4_deg_dist 0,588,4,0,0,0,0,0,0,0,0,0,0,0,0,0,
scooby_action_-3_deg_dist 0,527,1,0,0,0,0,0,0,0,0,0,0,0,0,0,
scooby_action_10_deg_dist 0,602,4,0,0,0,0,0,0,0,0,0,0,0,0,0,
scooby_action_-1_deg_dist 0,531,3,0,0,0,0,0,0,0,0,0,0,0,0,0,
scooby_action_23_deg_dist 0,510,0,0,0,0,0,0,0,0,0,0,0,0,0,0,
scooby_action_-6_deg_dist 0,538,2,0,0,0,0,0,0,0,0,0,0,0,0,0,
scooby_action_11_deg_dist 0,549,2,0,0,0,0,0,0,0,0,0,0,0,0,0,
scooby_action_22_deg_dist 0,501,0,0,0,0,0,0,0,0,0,0,0,0,0,0,

scooby_track_called 1851700
scooby_track_same_address 42621
scooby_track_evict 1808823

scooby_reward_demand_called 1851700
scooby_reward_demand_pt_not_found 227848
scooby_reward_demand_pt_found 1623852
scooby_reward_demand_pt_found_total 1623852
scooby_reward_demand_has_reward 32765
scooby_reward_train_called 186922
scooby_reward_assign_reward_called 1808955
scooby_reward_no_pref 783
scooby_reward_incorrect 186139
scooby_reward_correct_untimely 1487858
scooby_reward_correct_timely 103229
scooby_reward_out_of_bounds 30946
scooby_reward_tracker_hit 0

scooby_reward_none_low_bw 783
scooby_reward_none_high_bw 0
scooby_reward_incorrect_low_bw 186139
scooby_reward_incorrect_high_bw 0
scooby_reward_correct_untimely_low_bw 1487858
scooby_reward_correct_untimely_high_bw 0
scooby_reward_correct_timely_low_bw 103229
scooby_reward_correct_timely_high_bw 0
scooby_reward_out_of_bounds_low_bw 30946
scooby_reward_out_of_bounds_high_bw 0
scooby_reward_tracker_hit_low_bw 0
scooby_reward_tracker_hit_high_bw 0

scooby_reward_1 0,181978,1487078,102834,29739,0,
scooby_reward_3 0,383,141,37,28,0,
scooby_reward_4 0,368,143,44,29,0,
scooby_reward_5 0,362,112,53,32,0,
scooby_reward_10 0,373,80,61,83,0,
scooby_reward_11 0,347,67,51,74,0,
scooby_reward_12 0,347,59,51,96,0,
scooby_reward_22 0,264,42,31,159,0,
scooby_reward_23 0,256,34,31,181,0,
scooby_reward_30 0,244,72,22,251,0,
scooby_reward_32 0,181,23,9,211,0,
scooby_reward_-1 0,336,2,1,4,0,
scooby_reward_-3 0,343,3,1,24,0,
scooby_reward_-6 0,357,2,3,35,0,
scooby_reward_0 783,0,0,0,0,0,

scooby_train_called 1808822
scooby_train_compute_reward 186922

scooby_register_fill_called 828256
scooby_register_fill_set 151396
scooby_register_fill_set_total 151396

scooby_register_prefetch_hit_called 6312524
scooby_register_prefetch_hit_set 1677261
scooby_register_prefetch_hit_set_total 1677261

scooby_pref_issue_scooby 8652691

learning_engine_featurewise.action.called 1851700
learning_engine_featurewise.action.explore 3380
learning_engine_featurewise.action.exploit 1848320
learning_engine_featurewise.action.fallback 1474
learning_engine_featurewise.action.dyn_fallback_saved_bw 0
learning_engine_featurewise.action.dyn_fallback_saved_bw_acc 105344
learning_engine_featurewise.action.index_1_explored 214
learning_engine_featurewise.action.index_1_exploited 1843579
learning_engine_featurewise.action.index_3_explored 241
learning_engine_featurewise.action.index_3_exploited 363
learning_engine_featurewise.action.index_4_explored 233
learning_engine_featurewise.action.index_4_exploited 359
learning_engine_featurewise.action.index_5_explored 215
learning_engine_featurewise.action.index_5_exploited 349
learning_engine_featurewise.action.index_10_explored 254
learning_engine_featurewise.action.index_10_exploited 352
learning_engine_featurewise.action.index_11_explored 218
learning_engine_featurewise.action.index_11_exploited 333
learning_engine_featurewise.action.index_12_explored 222
learning_engine_featurewise.action.index_12_exploited 340
learning_engine_featurewise.action.index_22_explored 237
learning_engine_featurewise.action.index_22_exploited 264
learning_engine_featurewise.action.index_23_explored 230
learning_engine_featurewise.action.index_23_exploited 280
learning_engine_featurewise.action.index_30_explored 223
learning_engine_featurewise.action.index_30_exploited 375
learning_engine_featurewise.action.index_32_explored 193
learning_engine_featurewise.action.index_32_exploited 241
learning_engine_featurewise.action.index_-1_explored 227
learning_engine_featurewise.action.index_-1_exploited 307
learning_engine_featurewise.action.index_-3_explored 232
learning_engine_featurewise.action.index_-3_exploited 296
learning_engine_featurewise.action.index_-6_explored 215
learning_engine_featurewise.action.index_-6_exploited 325
learning_engine_featurewise.action.index_0_explored 226
learning_engine_featurewise.action.index_0_exploited 557
learning_engine_featurewise.learn.called 1808822
learning_engine_featurewise.learn.su_skip_PC 0
learning_engine_featurewise.learn.su_skip_PC_Delta 0

learning_engine_featurewise.q_value_histogram.bucket_0 0
learning_engine_featurewise.q_value_histogram.bucket_1 32
learning_engine_featurewise.q_value_histogram.bucket_2 2831
learning_engine_featurewise.q_value_histogram.bucket_3 2022
learning_engine_featurewise.q_value_histogram.bucket_4 6352
learning_engine_featurewise.q_value_histogram.bucket_5 12415
learning_engine_featurewise.q_value_histogram.bucket_6 1824668
learning_engine_featurewise.q_value_histogram.bucket_7 0

learning_engine_featurewise.consensus.total 1848320
learning_engine_featurewise.consensus.feature_align_PC 1839204
learning_engine_featurewise.consensus.feature_align_PC_ratio 1.00
learning_engine_featurewise.consensus.feature_align_PC_Delta 1847452
learning_engine_featurewise.consensus.feature_align_PC_Delta_ratio 1.00
learning_engine_featurewise.consensus.feature_align_all 1838368
learning_engine_featurewise.consensus.feature_align_all_ratio 0.99

learning_engine_featurewise.feature_PC_min_weight 1000000.00000000
learning_engine_featurewise.feature_PC_max_weight 0.00000000
learning_engine_featurewise.feature_PC_Delta_min_weight 1000000.00000000
learning_engine_featurewise.feature_PC_Delta_max_weight 0.00000000
unique_pcs 4881
unique_pages 6221
unique_trigger_pcs 1159
total_bitmaps_seen 0
unique_bitmaps_seen 0

scooby_bw_epochs 398735
scooby_bw_level_0 333236
scooby_bw_level_1 35883
scooby_bw_level_2 20425
scooby_bw_level_3 9191

scooby_ipc_epochs 0
scooby_ipc_level_0 0
scooby_ipc_level_1 0
scooby_ipc_level_2 0
scooby_ipc_level_3 0

scooby_cache_acc_epochs 99179
scooby_cache_acc_level_0 47361
scooby_cache_acc_level_1 4677
scooby_cache_acc_level_2 4015
scooby_cache_acc_level_3 3648
scooby_cache_acc_level_4 3598
scooby_cache_acc_level_5 4347
scooby_cache_acc_level_6 4080
scooby_cache_acc_level_7 5736
scooby_cache_acc_level_8 6209
scooby_cache_acc_level_9 15508

Channel_0_RQ_row_buffer_hit 161735
Channel_0_RQ_row_buffer_miss 231116
Channel_0_WQ_row_buffer_hit 42518
Channel_0_WQ_row_buffer_miss 153507
Channel_0_WQ_full 413
Channel_0_dbus_congested 362857

avg_congested_cycle 10

DRAM_bw_pochs 398735
DRAM_bw_level_0 333236
DRAM_bw_level_1 35883
DRAM_bw_level_2 20425
DRAM_bw_level_3 9191
