*************************************************
   ChampSim Multicore Out-of-Order Simulator
   Last compiled: Feb  6 2025 20:33:19
*************************************************
parsing config file: /home/wzz/Pythia/config/nopref.ini

trace_0 /home/wzz/Pythia/traces/628.pop2_s-17B.champsimtrace.xz
adding L2C_PREFETCHER: NONE
Initialize SHIP state
warmup_instructions 40000000
simulation_instructions 100000000
champsim_seed 170
measure_ipc 0
measure_ipc_epoch 1000
measure_dram_bw 1
measure_dram_bw_epoch 256
measure_cache_acc 1
measure_cache_acc_epoch 1024
l1d_perfect 0
l2c_perfect 0
llc_perfect 0
l1d_semi_perfect 0
l2c_semi_perfect 0
llc_semi_perfect 0
semi_perfect_cache_page_buffer_size 64

num_cpus 1
cpu_freq 4000
dram_io_freq 2400
page_size 4096
block_size 64
max_read_per_cycle 8
max_fill_per_cycle 1
dram_channels 1
log2_dram_channels 0
dram_ranks 1
dram_banks 8
dram_rows 65536
dram_columns 128
dram_row_size 8
dram_size 4096
dram_pages 1048576

fetch_width 6
decode_width 6
exec_width 4
lq_width 2
sq_width 2
retire_width 4
scheduler_size 128
branch_mispredict_penalty 20
rob_size 256
lq_size 72
sq_size 56
num_instr_destinations_sparc 4
num_instr_destinations 2
num_instr_sources 4

itlb_set 16
itlb_way 8
itlb_rq_size 16
itlb_wq_size 16
itlb_pq_size 0
itlb_mshr_size 8
itlb_latency 1

dtlb_set 16
dtlb_way 4
dtlb_rq_size 16
dtlb_wq_size 16
dtlb_pq_size 0
dtlb_mshr_size 8
dtlb_latency 1

stlb_set 128
stlb_way 12
stlb_rq_size 32
stlb_wq_size 32
stlb_pq_size 0
stlb_mshr_size 16
stlb_latency 8

l1i_size 32
l1i_set 64
l1i_way 8
l1i_rq_size 64
l1i_wq_size 64
l1i_pq_size 8
l1i_mshr_size 8
l1i_latency 1

l1d_size 32
l1d_set 64
l1d_way 8
l1d_rq_size 64
l1d_wq_size 64
l1d_pq_size 8
l1d_mshr_size 16
l1d_latency 4

l2c_size 256
l2c_set 512
l2c_way 8
l2c_rq_size 32
l2c_wq_size 32
l2c_pq_size 32
l2c_mshr_size 32
l2c_latency 10

llc_size 2048
llc_set 2048
llc_way 16
llc_rq_size 32
llc_wq_size 32
llc_pq_size 32
llc_mshr_size 64
llc_latency 20

dram_channel_width 8
dram_wq_size 64
dram_rq_size 64
tRP 15
tRCD 15
tCAS 12.5
dram_dbus_turn_around_time 30
dram_write_high_wm 56
dram_write_low_wm 48
min_dram_writes_per_switch 16
dram_mtps 2400
dram_dbus_return_time 13


Heartbeat CPU  0 instructions:    1000003 cycles:     458892 heartbeat IPC: 2.17917 cumulative IPC: 2.17917 (Simulation time: 0 hr 0 min 3 sec) 
Heartbeat CPU  0 instructions:    2000000 cycles:     915052 heartbeat IPC: 2.19221 cumulative IPC: 2.18567 (Simulation time: 0 hr 0 min 6 sec) 
Heartbeat CPU  0 instructions:    3000003 cycles:    1361768 heartbeat IPC: 2.23857 cumulative IPC: 2.20302 (Simulation time: 0 hr 0 min 9 sec) 
Heartbeat CPU  0 instructions:    4000000 cycles:    1792542 heartbeat IPC: 2.32140 cumulative IPC: 2.23147 (Simulation time: 0 hr 0 min 12 sec) 
Heartbeat CPU  0 instructions:    5000003 cycles:    2243949 heartbeat IPC: 2.21530 cumulative IPC: 2.22822 (Simulation time: 0 hr 0 min 15 sec) 
Heartbeat CPU  0 instructions:    6000001 cycles:    2682770 heartbeat IPC: 2.27883 cumulative IPC: 2.23649 (Simulation time: 0 hr 0 min 18 sec) 
Heartbeat CPU  0 instructions:    7000001 cycles:    3126558 heartbeat IPC: 2.25333 cumulative IPC: 2.23888 (Simulation time: 0 hr 0 min 21 sec) 
Heartbeat CPU  0 instructions:    8000000 cycles:    3569806 heartbeat IPC: 2.25607 cumulative IPC: 2.24102 (Simulation time: 0 hr 0 min 24 sec) 
Heartbeat CPU  0 instructions:    9000003 cycles:    3995298 heartbeat IPC: 2.35023 cumulative IPC: 2.25265 (Simulation time: 0 hr 0 min 27 sec) 
Heartbeat CPU  0 instructions:   10000002 cycles:    4445736 heartbeat IPC: 2.22006 cumulative IPC: 2.24935 (Simulation time: 0 hr 0 min 30 sec) 
Heartbeat CPU  0 instructions:   11000001 cycles:    4883345 heartbeat IPC: 2.28514 cumulative IPC: 2.25255 (Simulation time: 0 hr 0 min 33 sec) 
Heartbeat CPU  0 instructions:   12000000 cycles:    5326319 heartbeat IPC: 2.25747 cumulative IPC: 2.25296 (Simulation time: 0 hr 0 min 36 sec) 
Heartbeat CPU  0 instructions:   13000003 cycles:    5767678 heartbeat IPC: 2.26574 cumulative IPC: 2.25394 (Simulation time: 0 hr 0 min 39 sec) 
Heartbeat CPU  0 instructions:   14000002 cycles:    6191994 heartbeat IPC: 2.35673 cumulative IPC: 2.26098 (Simulation time: 0 hr 0 min 42 sec) 
Heartbeat CPU  0 instructions:   15000002 cycles:    6640258 heartbeat IPC: 2.23083 cumulative IPC: 2.25895 (Simulation time: 0 hr 0 min 45 sec) 
Heartbeat CPU  0 instructions:   16000000 cycles:    7077966 heartbeat IPC: 2.28462 cumulative IPC: 2.26054 (Simulation time: 0 hr 0 min 48 sec) 
Heartbeat CPU  0 instructions:   17000001 cycles:    7520676 heartbeat IPC: 2.25882 cumulative IPC: 2.26044 (Simulation time: 0 hr 0 min 51 sec) 
Heartbeat CPU  0 instructions:   18000001 cycles:    7964076 heartbeat IPC: 2.25530 cumulative IPC: 2.26015 (Simulation time: 0 hr 0 min 54 sec) 
Heartbeat CPU  0 instructions:   19000003 cycles:    8388014 heartbeat IPC: 2.35884 cumulative IPC: 2.26514 (Simulation time: 0 hr 0 min 56 sec) 
Heartbeat CPU  0 instructions:   20000000 cycles:    8840774 heartbeat IPC: 2.20867 cumulative IPC: 2.26225 (Simulation time: 0 hr 1 min 0 sec) 
Heartbeat CPU  0 instructions:   21000000 cycles:    9280256 heartbeat IPC: 2.27541 cumulative IPC: 2.26287 (Simulation time: 0 hr 1 min 2 sec) 
Heartbeat CPU  0 instructions:   22000002 cycles:    9723023 heartbeat IPC: 2.25853 cumulative IPC: 2.26267 (Simulation time: 0 hr 1 min 5 sec) 
Heartbeat CPU  0 instructions:   23000002 cycles:   10163814 heartbeat IPC: 2.26865 cumulative IPC: 2.26293 (Simulation time: 0 hr 1 min 9 sec) 
Heartbeat CPU  0 instructions:   24000000 cycles:   10586222 heartbeat IPC: 2.36737 cumulative IPC: 2.26710 (Simulation time: 0 hr 1 min 11 sec) 
Heartbeat CPU  0 instructions:   25000003 cycles:   11036953 heartbeat IPC: 2.21862 cumulative IPC: 2.26512 (Simulation time: 0 hr 1 min 14 sec) 
Heartbeat CPU  0 instructions:   26000002 cycles:   11473315 heartbeat IPC: 2.29167 cumulative IPC: 2.26613 (Simulation time: 0 hr 1 min 17 sec) 
Heartbeat CPU  0 instructions:   27000000 cycles:   11914403 heartbeat IPC: 2.26712 cumulative IPC: 2.26616 (Simulation time: 0 hr 1 min 20 sec) 
Heartbeat CPU  0 instructions:   28000000 cycles:   12355642 heartbeat IPC: 2.26635 cumulative IPC: 2.26617 (Simulation time: 0 hr 1 min 23 sec) 
Heartbeat CPU  0 instructions:   29000000 cycles:   12779568 heartbeat IPC: 2.35890 cumulative IPC: 2.26925 (Simulation time: 0 hr 1 min 26 sec) 
Heartbeat CPU  0 instructions:   30000002 cycles:   13232127 heartbeat IPC: 2.20966 cumulative IPC: 2.26721 (Simulation time: 0 hr 1 min 29 sec) 
Heartbeat CPU  0 instructions:   31000003 cycles:   13668486 heartbeat IPC: 2.29169 cumulative IPC: 2.26799 (Simulation time: 0 hr 1 min 32 sec) 
Heartbeat CPU  0 instructions:   32000000 cycles:   14109695 heartbeat IPC: 2.26649 cumulative IPC: 2.26794 (Simulation time: 0 hr 1 min 35 sec) 
Heartbeat CPU  0 instructions:   33000000 cycles:   14550891 heartbeat IPC: 2.26657 cumulative IPC: 2.26790 (Simulation time: 0 hr 1 min 38 sec) 
Heartbeat CPU  0 instructions:   34000000 cycles:   14974887 heartbeat IPC: 2.35851 cumulative IPC: 2.27047 (Simulation time: 0 hr 1 min 41 sec) 
Heartbeat CPU  0 instructions:   35000001 cycles:   15426393 heartbeat IPC: 2.21481 cumulative IPC: 2.26884 (Simulation time: 0 hr 1 min 44 sec) 
Heartbeat CPU  0 instructions:   36000000 cycles:   15865623 heartbeat IPC: 2.27671 cumulative IPC: 2.26906 (Simulation time: 0 hr 1 min 47 sec) 
Heartbeat CPU  0 instructions:   37000002 cycles:   16311465 heartbeat IPC: 2.24295 cumulative IPC: 2.26834 (Simulation time: 0 hr 1 min 50 sec) 
Heartbeat CPU  0 instructions:   38000002 cycles:   16759578 heartbeat IPC: 2.23158 cumulative IPC: 2.26736 (Simulation time: 0 hr 1 min 53 sec) 
Heartbeat CPU  0 instructions:   39000001 cycles:   17186569 heartbeat IPC: 2.34197 cumulative IPC: 2.26921 (Simulation time: 0 hr 1 min 55 sec) 
Heartbeat CPU  0 instructions:   40000000 cycles:   17635881 heartbeat IPC: 2.22562 cumulative IPC: 2.26810 (Simulation time: 0 hr 1 min 58 sec) 

Warmup complete CPU  0 instructions:   40000001 cycles:   17635885 (Simulation time: 0 hr 1 min 58 sec) 

Heartbeat CPU  0 instructions:   41000003 cycles:   18672886 heartbeat IPC: 0.96432 cumulative IPC: 0.96432 (Simulation time: 0 hr 2 min 2 sec) 
Heartbeat CPU  0 instructions:   42000001 cycles:   19665470 heartbeat IPC: 1.00747 cumulative IPC: 0.98542 (Simulation time: 0 hr 2 min 6 sec) 
Heartbeat CPU  0 instructions:   43000001 cycles:   20778384 heartbeat IPC: 0.89854 cumulative IPC: 0.95465 (Simulation time: 0 hr 2 min 10 sec) 
Heartbeat CPU  0 instructions:   44000000 cycles:   21849342 heartbeat IPC: 0.93374 cumulative IPC: 0.94934 (Simulation time: 0 hr 2 min 14 sec) 
Heartbeat CPU  0 instructions:   45000002 cycles:   22904411 heartbeat IPC: 0.94781 cumulative IPC: 0.94903 (Simulation time: 0 hr 2 min 18 sec) 
Heartbeat CPU  0 instructions:   46000003 cycles:   23927537 heartbeat IPC: 0.97740 cumulative IPC: 0.95364 (Simulation time: 0 hr 2 min 21 sec) 
Heartbeat CPU  0 instructions:   47000000 cycles:   24932859 heartbeat IPC: 0.99470 cumulative IPC: 0.95930 (Simulation time: 0 hr 2 min 25 sec) 
Heartbeat CPU  0 instructions:   48000000 cycles:   26051532 heartbeat IPC: 0.89392 cumulative IPC: 0.95061 (Simulation time: 0 hr 2 min 29 sec) 
Heartbeat CPU  0 instructions:   49000003 cycles:   27119349 heartbeat IPC: 0.93649 cumulative IPC: 0.94902 (Simulation time: 0 hr 2 min 33 sec) 
Heartbeat CPU  0 instructions:   50000001 cycles:   28160730 heartbeat IPC: 0.96026 cumulative IPC: 0.95013 (Simulation time: 0 hr 2 min 37 sec) 
Heartbeat CPU  0 instructions:   51000000 cycles:   29202531 heartbeat IPC: 0.95988 cumulative IPC: 0.95101 (Simulation time: 0 hr 2 min 41 sec) 
Heartbeat CPU  0 instructions:   52000000 cycles:   30195512 heartbeat IPC: 1.00707 cumulative IPC: 0.95544 (Simulation time: 0 hr 2 min 45 sec) 
Heartbeat CPU  0 instructions:   53000000 cycles:   31304587 heartbeat IPC: 0.90165 cumulative IPC: 0.95108 (Simulation time: 0 hr 2 min 49 sec) 
Heartbeat CPU  0 instructions:   54000003 cycles:   32365085 heartbeat IPC: 0.94296 cumulative IPC: 0.95049 (Simulation time: 0 hr 2 min 52 sec) 
Heartbeat CPU  0 instructions:   55000000 cycles:   33406014 heartbeat IPC: 0.96068 cumulative IPC: 0.95117 (Simulation time: 0 hr 2 min 56 sec) 
Heartbeat CPU  0 instructions:   56000000 cycles:   34428746 heartbeat IPC: 0.97777 cumulative IPC: 0.95279 (Simulation time: 0 hr 3 min 0 sec) 
Heartbeat CPU  0 instructions:   57000002 cycles:   35434130 heartbeat IPC: 0.99465 cumulative IPC: 0.95515 (Simulation time: 0 hr 3 min 4 sec) 
Heartbeat CPU  0 instructions:   58000000 cycles:   36526499 heartbeat IPC: 0.91544 cumulative IPC: 0.95285 (Simulation time: 0 hr 3 min 8 sec) 
Heartbeat CPU  0 instructions:   59000002 cycles:   37593259 heartbeat IPC: 0.93742 cumulative IPC: 0.95203 (Simulation time: 0 hr 3 min 12 sec) 
Heartbeat CPU  0 instructions:   60000000 cycles:   38638171 heartbeat IPC: 0.95702 cumulative IPC: 0.95228 (Simulation time: 0 hr 3 min 16 sec) 
Heartbeat CPU  0 instructions:   61000003 cycles:   39644124 heartbeat IPC: 0.99409 cumulative IPC: 0.95419 (Simulation time: 0 hr 3 min 19 sec) 
Heartbeat CPU  0 instructions:   62000002 cycles:   40628041 heartbeat IPC: 1.01634 cumulative IPC: 0.95685 (Simulation time: 0 hr 3 min 23 sec) 
Heartbeat CPU  0 instructions:   63000002 cycles:   41714709 heartbeat IPC: 0.92024 cumulative IPC: 0.95520 (Simulation time: 0 hr 3 min 27 sec) 
Heartbeat CPU  0 instructions:   64000000 cycles:   42759363 heartbeat IPC: 0.95725 cumulative IPC: 0.95528 (Simulation time: 0 hr 3 min 31 sec) 
Heartbeat CPU  0 instructions:   65000001 cycles:   43795391 heartbeat IPC: 0.96523 cumulative IPC: 0.95568 (Simulation time: 0 hr 3 min 35 sec) 
Heartbeat CPU  0 instructions:   66000000 cycles:   44805975 heartbeat IPC: 0.98953 cumulative IPC: 0.95693 (Simulation time: 0 hr 3 min 38 sec) 
Heartbeat CPU  0 instructions:   67000003 cycles:   45779900 heartbeat IPC: 1.02678 cumulative IPC: 0.95935 (Simulation time: 0 hr 3 min 42 sec) 
Heartbeat CPU  0 instructions:   68000000 cycles:   46874083 heartbeat IPC: 0.91392 cumulative IPC: 0.95765 (Simulation time: 0 hr 3 min 46 sec) 
Heartbeat CPU  0 instructions:   69000003 cycles:   47885290 heartbeat IPC: 0.98892 cumulative IPC: 0.95870 (Simulation time: 0 hr 3 min 50 sec) 
Heartbeat CPU  0 instructions:   70000002 cycles:   48887013 heartbeat IPC: 0.99828 cumulative IPC: 0.95997 (Simulation time: 0 hr 3 min 53 sec) 
Heartbeat CPU  0 instructions:   71000003 cycles:   49752972 heartbeat IPC: 1.15479 cumulative IPC: 0.96522 (Simulation time: 0 hr 3 min 57 sec) 
Heartbeat CPU  0 instructions:   72000000 cycles:   50440378 heartbeat IPC: 1.45474 cumulative IPC: 0.97548 (Simulation time: 0 hr 4 min 0 sec) 
Heartbeat CPU  0 instructions:   73000003 cycles:   51125617 heartbeat IPC: 1.45935 cumulative IPC: 0.98538 (Simulation time: 0 hr 4 min 3 sec) 
Heartbeat CPU  0 instructions:   74000001 cycles:   51812915 heartbeat IPC: 1.45497 cumulative IPC: 0.99482 (Simulation time: 0 hr 4 min 7 sec) 
Heartbeat CPU  0 instructions:   75000002 cycles:   52497238 heartbeat IPC: 1.46130 cumulative IPC: 1.00398 (Simulation time: 0 hr 4 min 10 sec) 
Heartbeat CPU  0 instructions:   76000000 cycles:   53180208 heartbeat IPC: 1.46419 cumulative IPC: 1.01282 (Simulation time: 0 hr 4 min 13 sec) 
Heartbeat CPU  0 instructions:   77000003 cycles:   53863281 heartbeat IPC: 1.46398 cumulative IPC: 1.02133 (Simulation time: 0 hr 4 min 16 sec) 
Heartbeat CPU  0 instructions:   78000000 cycles:   54908065 heartbeat IPC: 0.95713 cumulative IPC: 1.01953 (Simulation time: 0 hr 4 min 20 sec) 
Heartbeat CPU  0 instructions:   79000001 cycles:   56065042 heartbeat IPC: 0.86432 cumulative IPC: 1.01485 (Simulation time: 0 hr 4 min 24 sec) 
Heartbeat CPU  0 instructions:   80000000 cycles:   57414747 heartbeat IPC: 0.74090 cumulative IPC: 1.00556 (Simulation time: 0 hr 4 min 28 sec) 
Heartbeat CPU  0 instructions:   81000000 cycles:   58776087 heartbeat IPC: 0.73457 cumulative IPC: 0.99659 (Simulation time: 0 hr 4 min 32 sec) 
Heartbeat CPU  0 instructions:   82000003 cycles:   60202304 heartbeat IPC: 0.70116 cumulative IPC: 0.98669 (Simulation time: 0 hr 4 min 35 sec) 
Heartbeat CPU  0 instructions:   83000002 cycles:   61193143 heartbeat IPC: 1.00924 cumulative IPC: 0.98721 (Simulation time: 0 hr 4 min 39 sec) 
Heartbeat CPU  0 instructions:   84000000 cycles:   62255348 heartbeat IPC: 0.94144 cumulative IPC: 0.98612 (Simulation time: 0 hr 4 min 42 sec) 
Heartbeat CPU  0 instructions:   85000001 cycles:   63316610 heartbeat IPC: 0.94228 cumulative IPC: 0.98510 (Simulation time: 0 hr 4 min 46 sec) 
Heartbeat CPU  0 instructions:   86000002 cycles:   64386532 heartbeat IPC: 0.93465 cumulative IPC: 0.98394 (Simulation time: 0 hr 4 min 50 sec) 
Heartbeat CPU  0 instructions:   87000001 cycles:   65478257 heartbeat IPC: 0.91598 cumulative IPC: 0.98239 (Simulation time: 0 hr 4 min 53 sec) 
Heartbeat CPU  0 instructions:   88000000 cycles:   66459482 heartbeat IPC: 1.01913 cumulative IPC: 0.98313 (Simulation time: 0 hr 4 min 56 sec) 
Heartbeat CPU  0 instructions:   89000001 cycles:   67338948 heartbeat IPC: 1.13705 cumulative IPC: 0.98585 (Simulation time: 0 hr 4 min 59 sec) 
Heartbeat CPU  0 instructions:   90000002 cycles:   68217930 heartbeat IPC: 1.13768 cumulative IPC: 0.98849 (Simulation time: 0 hr 5 min 3 sec) 
Heartbeat CPU  0 instructions:   91000000 cycles:   69247883 heartbeat IPC: 0.97092 cumulative IPC: 0.98814 (Simulation time: 0 hr 5 min 6 sec) 
Heartbeat CPU  0 instructions:   92000000 cycles:   70214808 heartbeat IPC: 1.03421 cumulative IPC: 0.98899 (Simulation time: 0 hr 5 min 10 sec) 
Heartbeat CPU  0 instructions:   93000000 cycles:   71173208 heartbeat IPC: 1.04341 cumulative IPC: 0.98996 (Simulation time: 0 hr 5 min 13 sec) 
Heartbeat CPU  0 instructions:   94000003 cycles:   72134233 heartbeat IPC: 1.04056 cumulative IPC: 0.99086 (Simulation time: 0 hr 5 min 17 sec) 
Heartbeat CPU  0 instructions:   95000000 cycles:   73194899 heartbeat IPC: 0.94280 cumulative IPC: 0.98994 (Simulation time: 0 hr 5 min 20 sec) 
Heartbeat CPU  0 instructions:   96000000 cycles:   73944974 heartbeat IPC: 1.33320 cumulative IPC: 0.99451 (Simulation time: 0 hr 5 min 24 sec) 
Heartbeat CPU  0 instructions:   97000003 cycles:   74669014 heartbeat IPC: 1.38114 cumulative IPC: 0.99942 (Simulation time: 0 hr 5 min 28 sec) 
Heartbeat CPU  0 instructions:   98000001 cycles:   75439494 heartbeat IPC: 1.29789 cumulative IPC: 1.00340 (Simulation time: 0 hr 5 min 31 sec) 
Heartbeat CPU  0 instructions:   99000000 cycles:   76364076 heartbeat IPC: 1.08157 cumulative IPC: 1.00463 (Simulation time: 0 hr 5 min 35 sec) 
Heartbeat CPU  0 instructions:  100000000 cycles:   77517371 heartbeat IPC: 0.86708 cumulative IPC: 1.00198 (Simulation time: 0 hr 5 min 39 sec) 
Heartbeat CPU  0 instructions:  101000000 cycles:   78558619 heartbeat IPC: 0.96039 cumulative IPC: 1.00127 (Simulation time: 0 hr 5 min 43 sec) 
Heartbeat CPU  0 instructions:  102000001 cycles:   79664291 heartbeat IPC: 0.90443 cumulative IPC: 0.99954 (Simulation time: 0 hr 5 min 46 sec) 
Heartbeat CPU  0 instructions:  103000002 cycles:   80950202 heartbeat IPC: 0.77766 cumulative IPC: 0.99504 (Simulation time: 0 hr 5 min 50 sec) 
Heartbeat CPU  0 instructions:  104000000 cycles:   82154066 heartbeat IPC: 0.83066 cumulative IPC: 0.99197 (Simulation time: 0 hr 5 min 53 sec) 
Heartbeat CPU  0 instructions:  105000000 cycles:   82991253 heartbeat IPC: 1.19448 cumulative IPC: 0.99456 (Simulation time: 0 hr 5 min 57 sec) 
Heartbeat CPU  0 instructions:  106000001 cycles:   83811539 heartbeat IPC: 1.21909 cumulative IPC: 0.99735 (Simulation time: 0 hr 6 min 0 sec) 
Heartbeat CPU  0 instructions:  107000000 cycles:   84646065 heartbeat IPC: 1.19828 cumulative IPC: 0.99985 (Simulation time: 0 hr 6 min 4 sec) 
Heartbeat CPU  0 instructions:  108000000 cycles:   85479732 heartbeat IPC: 1.19952 cumulative IPC: 1.00230 (Simulation time: 0 hr 6 min 7 sec) 
Heartbeat CPU  0 instructions:  109000002 cycles:   86289964 heartbeat IPC: 1.23422 cumulative IPC: 1.00504 (Simulation time: 0 hr 6 min 11 sec) 
Heartbeat CPU  0 instructions:  110000001 cycles:   87124554 heartbeat IPC: 1.19819 cumulative IPC: 1.00736 (Simulation time: 0 hr 6 min 14 sec) 
Heartbeat CPU  0 instructions:  111000000 cycles:   87947280 heartbeat IPC: 1.21547 cumulative IPC: 1.00979 (Simulation time: 0 hr 6 min 18 sec) 
Heartbeat CPU  0 instructions:  112000000 cycles:   88779115 heartbeat IPC: 1.20216 cumulative IPC: 1.01204 (Simulation time: 0 hr 6 min 21 sec) 
Heartbeat CPU  0 instructions:  113000001 cycles:   89605934 heartbeat IPC: 1.20946 cumulative IPC: 1.01431 (Simulation time: 0 hr 6 min 25 sec) 
Heartbeat CPU  0 instructions:  114000000 cycles:   91189282 heartbeat IPC: 0.63157 cumulative IPC: 1.00607 (Simulation time: 0 hr 6 min 29 sec) 
Heartbeat CPU  0 instructions:  115000002 cycles:   93053754 heartbeat IPC: 0.53635 cumulative IPC: 0.99446 (Simulation time: 0 hr 6 min 34 sec) 
Heartbeat CPU  0 instructions:  116000000 cycles:   94045304 heartbeat IPC: 1.00852 cumulative IPC: 0.99464 (Simulation time: 0 hr 6 min 37 sec) 
Heartbeat CPU  0 instructions:  117000001 cycles:   94957150 heartbeat IPC: 1.09668 cumulative IPC: 0.99585 (Simulation time: 0 hr 6 min 40 sec) 
Heartbeat CPU  0 instructions:  118000000 cycles:   95947159 heartbeat IPC: 1.01009 cumulative IPC: 0.99603 (Simulation time: 0 hr 6 min 43 sec) 
Heartbeat CPU  0 instructions:  119000003 cycles:   96929478 heartbeat IPC: 1.01800 cumulative IPC: 0.99630 (Simulation time: 0 hr 6 min 46 sec) 
Heartbeat CPU  0 instructions:  120000000 cycles:   97785137 heartbeat IPC: 1.16869 cumulative IPC: 0.99814 (Simulation time: 0 hr 6 min 49 sec) 
Heartbeat CPU  0 instructions:  121000000 cycles:   98641339 heartbeat IPC: 1.16795 cumulative IPC: 0.99993 (Simulation time: 0 hr 6 min 52 sec) 
Heartbeat CPU  0 instructions:  122000003 cycles:   99768729 heartbeat IPC: 0.88701 cumulative IPC: 0.99838 (Simulation time: 0 hr 6 min 55 sec) 
Heartbeat CPU  0 instructions:  123000000 cycles:  100737153 heartbeat IPC: 1.03260 cumulative IPC: 0.99878 (Simulation time: 0 hr 6 min 59 sec) 
Heartbeat CPU  0 instructions:  124000000 cycles:  101712115 heartbeat IPC: 1.02568 cumulative IPC: 0.99909 (Simulation time: 0 hr 7 min 2 sec) 
Heartbeat CPU  0 instructions:  125000002 cycles:  102669803 heartbeat IPC: 1.04418 cumulative IPC: 0.99960 (Simulation time: 0 hr 7 min 6 sec) 
Heartbeat CPU  0 instructions:  126000001 cycles:  103518912 heartbeat IPC: 1.17770 cumulative IPC: 1.00136 (Simulation time: 0 hr 7 min 9 sec) 
Heartbeat CPU  0 instructions:  127000001 cycles:  104559484 heartbeat IPC: 0.96101 cumulative IPC: 1.00088 (Simulation time: 0 hr 7 min 12 sec) 
Heartbeat CPU  0 instructions:  128000000 cycles:  105486594 heartbeat IPC: 1.07862 cumulative IPC: 1.00170 (Simulation time: 0 hr 7 min 15 sec) 
Heartbeat CPU  0 instructions:  129000002 cycles:  106564651 heartbeat IPC: 0.92760 cumulative IPC: 1.00080 (Simulation time: 0 hr 7 min 19 sec) 
Heartbeat CPU  0 instructions:  130000001 cycles:  107735227 heartbeat IPC: 0.85428 cumulative IPC: 0.99890 (Simulation time: 0 hr 7 min 23 sec) 
Heartbeat CPU  0 instructions:  131000001 cycles:  108954908 heartbeat IPC: 0.81989 cumulative IPC: 0.99651 (Simulation time: 0 hr 7 min 26 sec) 
Heartbeat CPU  0 instructions:  132000000 cycles:  110343579 heartbeat IPC: 0.72011 cumulative IPC: 0.99237 (Simulation time: 0 hr 7 min 30 sec) 
Heartbeat CPU  0 instructions:  133000000 cycles:  112196764 heartbeat IPC: 0.53961 cumulative IPC: 0.98349 (Simulation time: 0 hr 7 min 35 sec) 
Heartbeat CPU  0 instructions:  134000000 cycles:  112906389 heartbeat IPC: 1.40919 cumulative IPC: 0.98666 (Simulation time: 0 hr 7 min 37 sec) 
Heartbeat CPU  0 instructions:  135000003 cycles:  113609868 heartbeat IPC: 1.42151 cumulative IPC: 0.98985 (Simulation time: 0 hr 7 min 40 sec) 
Heartbeat CPU  0 instructions:  136000000 cycles:  114312296 heartbeat IPC: 1.42363 cumulative IPC: 0.99300 (Simulation time: 0 hr 7 min 42 sec) 
Heartbeat CPU  0 instructions:  137000000 cycles:  115014802 heartbeat IPC: 1.42348 cumulative IPC: 0.99611 (Simulation time: 0 hr 7 min 45 sec) 
Heartbeat CPU  0 instructions:  138000001 cycles:  115717101 heartbeat IPC: 1.42390 cumulative IPC: 0.99917 (Simulation time: 0 hr 7 min 48 sec) 
Heartbeat CPU  0 instructions:  139000000 cycles:  116419386 heartbeat IPC: 1.42392 cumulative IPC: 1.00219 (Simulation time: 0 hr 7 min 50 sec) 
Heartbeat CPU  0 instructions:  140000000 cycles:  117121855 heartbeat IPC: 1.42355 cumulative IPC: 1.00517 (Simulation time: 0 hr 7 min 53 sec) 
Finished CPU 0 instructions: 100000000 cycles: 99485978 cumulative IPC: 1.00517 (Simulation time: 0 hr 7 min 53 sec) 

ChampSim completed all CPUs

[ROI Statistics]
Core_0_instructions 100000000
Core_0_cycles 99485978
Core_0_IPC 1.00517

Core_0_branch_prediction_accuracy 97.85788
Core_0_branch_MPKI 3.09532
Core_0_average_ROB_occupancy_at_mispredict 173.82653

Core_0_L1D_total_access 16584580
Core_0_L1D_total_hit 14883472
Core_0_L1D_total_miss 1701108
Core_0_L1D_loads 11610404
Core_0_L1D_load_hit 10564487
Core_0_L1D_load_miss 1045917
Core_0_L1D_RFOs 4974176
Core_0_L1D_RFO_hit 4318985
Core_0_L1D_RFO_miss 655191
Core_0_L1D_prefetches 0
Core_0_L1D_prefetch_hit 0
Core_0_L1D_prefetch_miss 0
Core_0_L1D_writebacks 0
Core_0_L1D_writeback_hit 0
Core_0_L1D_writeback_miss 0
Core_0_L1D_prefetch_requested 0
Core_0_L1D_prefetch_dropped 0
Core_0_L1D_prefetch_issued 0
Core_0_L1D_prefetch_filled 0
Core_0_L1D_prefetch_useful 0
Core_0_L1D_prefetch_useless 0
Core_0_L1D_prefetch_late 0
Core_0_L1D_average_miss_latency 84.78939

Core_0_L1D_rq_access 20375733
Core_0_L1D_rq_forward 0
Core_0_L1D_rq_merged 7940463
Core_0_L1D_rq_to_cache 12433377
Core_0_L1D_rq_full 0

Core_0_L1D_wq_access 6788340
Core_0_L1D_wq_forward 1893
Core_0_L1D_wq_merged 99832
Core_0_L1D_wq_to_cache 6688508
Core_0_L1D_wq_full 1418246

Core_0_L1D_pq_access 0
Core_0_L1D_pq_forward 0
Core_0_L1D_pq_merged 0
Core_0_L1D_pq_to_cache 0
Core_0_L1D_pq_full 0

Core_0_L1D_acc_epochs 113872
Core_0_L1D_acc_level_0 113872
Core_0_L1D_acc_level_1 0
Core_0_L1D_acc_level_2 0
Core_0_L1D_acc_level_3 0
Core_0_L1D_acc_level_4 0
Core_0_L1D_acc_level_5 0
Core_0_L1D_acc_level_6 0
Core_0_L1D_acc_level_7 0
Core_0_L1D_acc_level_8 0
Core_0_L1D_acc_level_9 0

Core_0_L1I_total_access 21929963
Core_0_L1I_total_hit 21892294
Core_0_L1I_total_miss 37669
Core_0_L1I_loads 21929963
Core_0_L1I_load_hit 21892294
Core_0_L1I_load_miss 37669
Core_0_L1I_RFOs 0
Core_0_L1I_RFO_hit 0
Core_0_L1I_RFO_miss 0
Core_0_L1I_prefetches 0
Core_0_L1I_prefetch_hit 0
Core_0_L1I_prefetch_miss 0
Core_0_L1I_writebacks 0
Core_0_L1I_writeback_hit 0
Core_0_L1I_writeback_miss 0
Core_0_L1I_prefetch_requested 0
Core_0_L1I_prefetch_dropped 0
Core_0_L1I_prefetch_issued 0
Core_0_L1I_prefetch_filled 0
Core_0_L1I_prefetch_useful 0
Core_0_L1I_prefetch_useless 0
Core_0_L1I_prefetch_late 0
Core_0_L1I_average_miss_latency 53.23693

Core_0_L1I_rq_access 100000182
Core_0_L1I_rq_forward 0
Core_0_L1I_rq_merged 77994746
Core_0_L1I_rq_to_cache 22005436
Core_0_L1I_rq_full 0

Core_0_L1I_wq_access 0
Core_0_L1I_wq_forward 0
Core_0_L1I_wq_merged 0
Core_0_L1I_wq_to_cache 0
Core_0_L1I_wq_full 0

Core_0_L1I_pq_access 0
Core_0_L1I_pq_forward 0
Core_0_L1I_pq_merged 0
Core_0_L1I_pq_to_cache 0
Core_0_L1I_pq_full 0

Core_0_L1I_acc_epochs 113872
Core_0_L1I_acc_level_0 113872
Core_0_L1I_acc_level_1 0
Core_0_L1I_acc_level_2 0
Core_0_L1I_acc_level_3 0
Core_0_L1I_acc_level_4 0
Core_0_L1I_acc_level_5 0
Core_0_L1I_acc_level_6 0
Core_0_L1I_acc_level_7 0
Core_0_L1I_acc_level_8 0
Core_0_L1I_acc_level_9 0

Core_0_L2C_total_access 2537515
Core_0_L2C_total_hit 1779051
Core_0_L2C_total_miss 758464
Core_0_L2C_loads 1083535
Core_0_L2C_load_hit 613834
Core_0_L2C_load_miss 469701
Core_0_L2C_RFOs 655138
Core_0_L2C_RFO_hit 367074
Core_0_L2C_RFO_miss 288064
Core_0_L2C_prefetches 0
Core_0_L2C_prefetch_hit 0
Core_0_L2C_prefetch_miss 0
Core_0_L2C_writebacks 798842
Core_0_L2C_writeback_hit 798143
Core_0_L2C_writeback_miss 699
Core_0_L2C_prefetch_requested 0
Core_0_L2C_prefetch_dropped 0
Core_0_L2C_prefetch_issued 0
Core_0_L2C_prefetch_filled 0
Core_0_L2C_prefetch_useful 0
Core_0_L2C_prefetch_useless 0
Core_0_L2C_prefetch_late 0
Core_0_L2C_average_miss_latency 160.14897

Core_0_L2C_rq_access 1738777
Core_0_L2C_rq_forward 0
Core_0_L2C_rq_merged 0
Core_0_L2C_rq_to_cache 1738673
Core_0_L2C_rq_full 0

Core_0_L2C_wq_access 798842
Core_0_L2C_wq_forward 104
Core_0_L2C_wq_merged 0
Core_0_L2C_wq_to_cache 798842
Core_0_L2C_wq_full 0

Core_0_L2C_pq_access 0
Core_0_L2C_pq_forward 0
Core_0_L2C_pq_merged 0
Core_0_L2C_pq_to_cache 0
Core_0_L2C_pq_full 0

Core_0_L2C_acc_epochs 113872
Core_0_L2C_acc_level_0 113872
Core_0_L2C_acc_level_1 0
Core_0_L2C_acc_level_2 0
Core_0_L2C_acc_level_3 0
Core_0_L2C_acc_level_4 0
Core_0_L2C_acc_level_5 0
Core_0_L2C_acc_level_6 0
Core_0_L2C_acc_level_7 0
Core_0_L2C_acc_level_8 0
Core_0_L2C_acc_level_9 0

Core_0_LLC_total_access 1141882
Core_0_LLC_total_hit 693144
Core_0_LLC_total_miss 448738
Core_0_LLC_loads 469700
Core_0_LLC_load_hit 264365
Core_0_LLC_load_miss 205335
Core_0_LLC_RFOs 288063
Core_0_LLC_RFO_hit 111726
Core_0_LLC_RFO_miss 176337
Core_0_LLC_prefetches 0
Core_0_LLC_prefetch_hit 0
Core_0_LLC_prefetch_miss 0
Core_0_LLC_writebacks 384119
Core_0_LLC_writeback_hit 317053
Core_0_LLC_writeback_miss 67066
Core_0_LLC_prefetch_requested 0
Core_0_LLC_prefetch_dropped 0
Core_0_LLC_prefetch_issued 0
Core_0_LLC_prefetch_filled 0
Core_0_LLC_prefetch_useful 0
Core_0_LLC_prefetch_useless 0
Core_0_LLC_prefetch_late 0
Core_0_LLC_average_miss_latency 219.03119

Core_0_LLC_rq_access 757765
Core_0_LLC_rq_forward 0
Core_0_LLC_rq_merged 0
Core_0_LLC_rq_to_cache 757763
Core_0_LLC_rq_full 0

Core_0_LLC_wq_access 384119
Core_0_LLC_wq_forward 2
Core_0_LLC_wq_merged 0
Core_0_LLC_wq_to_cache 384119
Core_0_LLC_wq_full 0

Core_0_LLC_pq_access 0
Core_0_LLC_pq_forward 0
Core_0_LLC_pq_merged 0
Core_0_LLC_pq_to_cache 0
Core_0_LLC_pq_full 0

Core_0_LLC_acc_epochs 114377
Core_0_LLC_acc_level_0 114377
Core_0_LLC_acc_level_1 0
Core_0_LLC_acc_level_2 0
Core_0_LLC_acc_level_3 0
Core_0_LLC_acc_level_4 0
Core_0_LLC_acc_level_5 0
Core_0_LLC_acc_level_6 0
Core_0_LLC_acc_level_7 0
Core_0_LLC_acc_level_8 0
Core_0_LLC_acc_level_9 0

Core_0_major_page_fault 0
Core_0_minor_page_fault 7552

Channel_0_RQ_row_buffer_hit 143367
Channel_0_RQ_row_buffer_miss 238285
Channel_0_WQ_row_buffer_hit 70320
Channel_0_WQ_row_buffer_miss 124195
Channel_0_WQ_full 293
Channel_0_dbus_congested 289115

avg_congested_cycle 10

DRAM_bw_pochs 457508
DRAM_bw_level_0 399748
DRAM_bw_level_1 42864
DRAM_bw_level_2 10656
DRAM_bw_level_3 4240
