*************************************************
   ChampSim Multicore Out-of-Order Simulator
   Last compiled: Feb  6 2025 20:33:19
*************************************************
parsing config file: /home/wzz/Pythia/config/mlop.ini

trace_0 /home/wzz/Pythia/traces/649.fotonik3d_s-1176B.champsimtrace.xz
adding L2C_PREFETCHER: MLOP
Initialize SHIP state
warmup_instructions 40000000
simulation_instructions 100000000
champsim_seed 273
measure_ipc 0
measure_ipc_epoch 1000
measure_dram_bw 1
measure_dram_bw_epoch 256
measure_cache_acc 1
measure_cache_acc_epoch 1024
l1d_perfect 0
l2c_perfect 0
llc_perfect 0
l1d_semi_perfect 0
l2c_semi_perfect 0
llc_semi_perfect 0
semi_perfect_cache_page_buffer_size 64

num_cpus 1
cpu_freq 4000
dram_io_freq 2400
page_size 4096
block_size 64
max_read_per_cycle 8
max_fill_per_cycle 1
dram_channels 1
log2_dram_channels 0
dram_ranks 1
dram_banks 8
dram_rows 65536
dram_columns 128
dram_row_size 8
dram_size 4096
dram_pages 1048576

fetch_width 6
decode_width 6
exec_width 4
lq_width 2
sq_width 2
retire_width 4
scheduler_size 128
branch_mispredict_penalty 20
rob_size 256
lq_size 72
sq_size 56
num_instr_destinations_sparc 4
num_instr_destinations 2
num_instr_sources 4

itlb_set 16
itlb_way 8
itlb_rq_size 16
itlb_wq_size 16
itlb_pq_size 0
itlb_mshr_size 8
itlb_latency 1

dtlb_set 16
dtlb_way 4
dtlb_rq_size 16
dtlb_wq_size 16
dtlb_pq_size 0
dtlb_mshr_size 8
dtlb_latency 1

stlb_set 128
stlb_way 12
stlb_rq_size 32
stlb_wq_size 32
stlb_pq_size 0
stlb_mshr_size 16
stlb_latency 8

l1i_size 32
l1i_set 64
l1i_way 8
l1i_rq_size 64
l1i_wq_size 64
l1i_pq_size 8
l1i_mshr_size 8
l1i_latency 1

l1d_size 32
l1d_set 64
l1d_way 8
l1d_rq_size 64
l1d_wq_size 64
l1d_pq_size 8
l1d_mshr_size 16
l1d_latency 4

l2c_size 256
l2c_set 512
l2c_way 8
l2c_rq_size 32
l2c_wq_size 32
l2c_pq_size 32
l2c_mshr_size 32
l2c_latency 10

llc_size 2048
llc_set 2048
llc_way 16
llc_rq_size 32
llc_wq_size 32
llc_pq_size 32
llc_mshr_size 64
llc_latency 20

dram_channel_width 8
dram_wq_size 64
dram_rq_size 64
tRP 15
tRCD 15
tCAS 12.5
dram_dbus_turn_around_time 30
dram_write_high_wm 56
dram_write_low_wm 48
min_dram_writes_per_switch 16
dram_mtps 2400
dram_dbus_return_time 13

mlop_pref_degree 16
mlop_num_updates 500
mlop_l1d_thresh 2
mlop_l2c_thresh 0.75
mlop_llc_thresh 0.3
mlop_debug_level 0
mlop_blocks_in_cache 4096
mlop_blocks_in_zone 64
mlop_amt_size 2048
mlop_PF_DEGREE 16
mlop_NUM_UPDATES 500
mlop_L1D_THRESH 1000
mlop_L2C_THRESH 375
mlop_LLC_THRESH 150
mlop_ORIGIN 63
mlop_MAX_OFFSET 63
mlop_MIN_OFFSET -63
mlop_ORIGIN 63
mlop_NUM_OFFSETS 127


Heartbeat CPU  0 instructions:    1000001 cycles:     430408 heartbeat IPC: 2.32338 cumulative IPC: 2.32338 (Simulation time: 0 hr 0 min 5 sec) 
Heartbeat CPU  0 instructions:    2000001 cycles:     860564 heartbeat IPC: 2.32474 cumulative IPC: 2.32406 (Simulation time: 0 hr 0 min 9 sec) 
Heartbeat CPU  0 instructions:    3000002 cycles:    1290765 heartbeat IPC: 2.32450 cumulative IPC: 2.32420 (Simulation time: 0 hr 0 min 14 sec) 
Heartbeat CPU  0 instructions:    4000000 cycles:    1720920 heartbeat IPC: 2.32474 cumulative IPC: 2.32434 (Simulation time: 0 hr 0 min 18 sec) 
Heartbeat CPU  0 instructions:    5000000 cycles:    2150983 heartbeat IPC: 2.32524 cumulative IPC: 2.32452 (Simulation time: 0 hr 0 min 23 sec) 
Heartbeat CPU  0 instructions:    6000001 cycles:    2581050 heartbeat IPC: 2.32522 cumulative IPC: 2.32464 (Simulation time: 0 hr 0 min 28 sec) 
Heartbeat CPU  0 instructions:    7000001 cycles:    3011097 heartbeat IPC: 2.32533 cumulative IPC: 2.32473 (Simulation time: 0 hr 0 min 32 sec) 
Heartbeat CPU  0 instructions:    8000000 cycles:    3441228 heartbeat IPC: 2.32487 cumulative IPC: 2.32475 (Simulation time: 0 hr 0 min 37 sec) 
Heartbeat CPU  0 instructions:    9000003 cycles:    3871370 heartbeat IPC: 2.32482 cumulative IPC: 2.32476 (Simulation time: 0 hr 0 min 41 sec) 
Heartbeat CPU  0 instructions:   10000000 cycles:    4301539 heartbeat IPC: 2.32466 cumulative IPC: 2.32475 (Simulation time: 0 hr 0 min 46 sec) 
Heartbeat CPU  0 instructions:   11000000 cycles:    4731688 heartbeat IPC: 2.32478 cumulative IPC: 2.32475 (Simulation time: 0 hr 0 min 51 sec) 
Heartbeat CPU  0 instructions:   12000000 cycles:    5161818 heartbeat IPC: 2.32488 cumulative IPC: 2.32476 (Simulation time: 0 hr 0 min 55 sec) 
Heartbeat CPU  0 instructions:   13000000 cycles:    5592017 heartbeat IPC: 2.32451 cumulative IPC: 2.32474 (Simulation time: 0 hr 1 min 0 sec) 
Heartbeat CPU  0 instructions:   14000002 cycles:    6022168 heartbeat IPC: 2.32477 cumulative IPC: 2.32474 (Simulation time: 0 hr 1 min 4 sec) 
Heartbeat CPU  0 instructions:   15000003 cycles:    6452306 heartbeat IPC: 2.32484 cumulative IPC: 2.32475 (Simulation time: 0 hr 1 min 9 sec) 
Heartbeat CPU  0 instructions:   16000000 cycles:    6882431 heartbeat IPC: 2.32490 cumulative IPC: 2.32476 (Simulation time: 0 hr 1 min 13 sec) 
Heartbeat CPU  0 instructions:   17000003 cycles:    7312590 heartbeat IPC: 2.32473 cumulative IPC: 2.32476 (Simulation time: 0 hr 1 min 18 sec) 
Heartbeat CPU  0 instructions:   18000003 cycles:    7742761 heartbeat IPC: 2.32466 cumulative IPC: 2.32475 (Simulation time: 0 hr 1 min 23 sec) 
Heartbeat CPU  0 instructions:   19000003 cycles:    8172933 heartbeat IPC: 2.32465 cumulative IPC: 2.32475 (Simulation time: 0 hr 1 min 27 sec) 
Heartbeat CPU  0 instructions:   20000000 cycles:    8603091 heartbeat IPC: 2.32472 cumulative IPC: 2.32475 (Simulation time: 0 hr 1 min 32 sec) 
Heartbeat CPU  0 instructions:   21000002 cycles:    9033293 heartbeat IPC: 2.32449 cumulative IPC: 2.32473 (Simulation time: 0 hr 1 min 36 sec) 
Heartbeat CPU  0 instructions:   22000002 cycles:    9463527 heartbeat IPC: 2.32432 cumulative IPC: 2.32471 (Simulation time: 0 hr 1 min 41 sec) 
Heartbeat CPU  0 instructions:   23000003 cycles:    9893632 heartbeat IPC: 2.32502 cumulative IPC: 2.32473 (Simulation time: 0 hr 1 min 45 sec) 
Heartbeat CPU  0 instructions:   24000000 cycles:   10323797 heartbeat IPC: 2.32468 cumulative IPC: 2.32473 (Simulation time: 0 hr 1 min 50 sec) 
Heartbeat CPU  0 instructions:   25000002 cycles:   10753873 heartbeat IPC: 2.32518 cumulative IPC: 2.32474 (Simulation time: 0 hr 1 min 54 sec) 
Heartbeat CPU  0 instructions:   26000001 cycles:   11183924 heartbeat IPC: 2.32530 cumulative IPC: 2.32477 (Simulation time: 0 hr 1 min 59 sec) 
Heartbeat CPU  0 instructions:   27000003 cycles:   11614098 heartbeat IPC: 2.32465 cumulative IPC: 2.32476 (Simulation time: 0 hr 2 min 4 sec) 
Heartbeat CPU  0 instructions:   28000000 cycles:   12044213 heartbeat IPC: 2.32495 cumulative IPC: 2.32477 (Simulation time: 0 hr 2 min 8 sec) 
Heartbeat CPU  0 instructions:   29000000 cycles:   12474475 heartbeat IPC: 2.32417 cumulative IPC: 2.32475 (Simulation time: 0 hr 2 min 13 sec) 
Heartbeat CPU  0 instructions:   30000002 cycles:   12904693 heartbeat IPC: 2.32441 cumulative IPC: 2.32474 (Simulation time: 0 hr 2 min 17 sec) 
Heartbeat CPU  0 instructions:   31000002 cycles:   13334866 heartbeat IPC: 2.32465 cumulative IPC: 2.32473 (Simulation time: 0 hr 2 min 22 sec) 
Heartbeat CPU  0 instructions:   32000000 cycles:   13765082 heartbeat IPC: 2.32441 cumulative IPC: 2.32472 (Simulation time: 0 hr 2 min 26 sec) 
Heartbeat CPU  0 instructions:   33000001 cycles:   14195318 heartbeat IPC: 2.32431 cumulative IPC: 2.32471 (Simulation time: 0 hr 2 min 31 sec) 
Heartbeat CPU  0 instructions:   34000001 cycles:   14625464 heartbeat IPC: 2.32479 cumulative IPC: 2.32471 (Simulation time: 0 hr 2 min 36 sec) 
Heartbeat CPU  0 instructions:   35000000 cycles:   15055445 heartbeat IPC: 2.32568 cumulative IPC: 2.32474 (Simulation time: 0 hr 2 min 40 sec) 
Heartbeat CPU  0 instructions:   36000000 cycles:   15485552 heartbeat IPC: 2.32500 cumulative IPC: 2.32475 (Simulation time: 0 hr 2 min 45 sec) 
Heartbeat CPU  0 instructions:   37000001 cycles:   15915742 heartbeat IPC: 2.32456 cumulative IPC: 2.32474 (Simulation time: 0 hr 2 min 49 sec) 
Heartbeat CPU  0 instructions:   38000001 cycles:   16345750 heartbeat IPC: 2.32554 cumulative IPC: 2.32476 (Simulation time: 0 hr 2 min 53 sec) 
Heartbeat CPU  0 instructions:   39000000 cycles:   16775910 heartbeat IPC: 2.32471 cumulative IPC: 2.32476 (Simulation time: 0 hr 2 min 57 sec) 
Heartbeat CPU  0 instructions:   40000000 cycles:   17206073 heartbeat IPC: 2.32470 cumulative IPC: 2.32476 (Simulation time: 0 hr 3 min 2 sec) 

Warmup complete CPU  0 instructions:   40000002 cycles:   17206074 (Simulation time: 0 hr 3 min 2 sec) 

Heartbeat CPU  0 instructions:   41000001 cycles:   17997261 heartbeat IPC: 1.26392 cumulative IPC: 1.26392 (Simulation time: 0 hr 3 min 7 sec) 
Heartbeat CPU  0 instructions:   42000002 cycles:   18788206 heartbeat IPC: 1.26431 cumulative IPC: 1.26412 (Simulation time: 0 hr 3 min 12 sec) 
Heartbeat CPU  0 instructions:   43000000 cycles:   19580109 heartbeat IPC: 1.26278 cumulative IPC: 1.26367 (Simulation time: 0 hr 3 min 17 sec) 
Heartbeat CPU  0 instructions:   44000000 cycles:   20372540 heartbeat IPC: 1.26194 cumulative IPC: 1.26324 (Simulation time: 0 hr 3 min 22 sec) 
Heartbeat CPU  0 instructions:   45000003 cycles:   21165352 heartbeat IPC: 1.26134 cumulative IPC: 1.26286 (Simulation time: 0 hr 3 min 27 sec) 
Heartbeat CPU  0 instructions:   46000002 cycles:   21959218 heartbeat IPC: 1.25966 cumulative IPC: 1.26232 (Simulation time: 0 hr 3 min 32 sec) 
Heartbeat CPU  0 instructions:   47000001 cycles:   22752434 heartbeat IPC: 1.26069 cumulative IPC: 1.26209 (Simulation time: 0 hr 3 min 37 sec) 
Heartbeat CPU  0 instructions:   48000000 cycles:   23544877 heartbeat IPC: 1.26192 cumulative IPC: 1.26207 (Simulation time: 0 hr 3 min 42 sec) 
Heartbeat CPU  0 instructions:   49000001 cycles:   24337117 heartbeat IPC: 1.26225 cumulative IPC: 1.26209 (Simulation time: 0 hr 3 min 47 sec) 
Heartbeat CPU  0 instructions:   50000001 cycles:   25133222 heartbeat IPC: 1.25612 cumulative IPC: 1.26149 (Simulation time: 0 hr 3 min 52 sec) 
Heartbeat CPU  0 instructions:   51000002 cycles:   25924739 heartbeat IPC: 1.26340 cumulative IPC: 1.26166 (Simulation time: 0 hr 3 min 57 sec) 
Heartbeat CPU  0 instructions:   52000000 cycles:   26716395 heartbeat IPC: 1.26317 cumulative IPC: 1.26179 (Simulation time: 0 hr 4 min 2 sec) 
Heartbeat CPU  0 instructions:   53000001 cycles:   27508756 heartbeat IPC: 1.26205 cumulative IPC: 1.26181 (Simulation time: 0 hr 4 min 7 sec) 
Heartbeat CPU  0 instructions:   54000001 cycles:   28300350 heartbeat IPC: 1.26327 cumulative IPC: 1.26191 (Simulation time: 0 hr 4 min 13 sec) 
Heartbeat CPU  0 instructions:   55000000 cycles:   29092122 heartbeat IPC: 1.26299 cumulative IPC: 1.26198 (Simulation time: 0 hr 4 min 18 sec) 
Heartbeat CPU  0 instructions:   56000000 cycles:   29885243 heartbeat IPC: 1.26084 cumulative IPC: 1.26191 (Simulation time: 0 hr 4 min 23 sec) 
Heartbeat CPU  0 instructions:   57000000 cycles:   30679457 heartbeat IPC: 1.25911 cumulative IPC: 1.26175 (Simulation time: 0 hr 4 min 28 sec) 
Heartbeat CPU  0 instructions:   58000003 cycles:   31472784 heartbeat IPC: 1.26052 cumulative IPC: 1.26168 (Simulation time: 0 hr 4 min 33 sec) 
Heartbeat CPU  0 instructions:   59000002 cycles:   32264741 heartbeat IPC: 1.26269 cumulative IPC: 1.26173 (Simulation time: 0 hr 4 min 38 sec) 
Heartbeat CPU  0 instructions:   60000000 cycles:   33057041 heartbeat IPC: 1.26215 cumulative IPC: 1.26175 (Simulation time: 0 hr 4 min 43 sec) 
Heartbeat CPU  0 instructions:   61000003 cycles:   33850778 heartbeat IPC: 1.25987 cumulative IPC: 1.26166 (Simulation time: 0 hr 4 min 48 sec) 
Heartbeat CPU  0 instructions:   62000001 cycles:   34643693 heartbeat IPC: 1.26117 cumulative IPC: 1.26164 (Simulation time: 0 hr 4 min 53 sec) 
Heartbeat CPU  0 instructions:   63000001 cycles:   35435803 heartbeat IPC: 1.26245 cumulative IPC: 1.26168 (Simulation time: 0 hr 4 min 58 sec) 
Heartbeat CPU  0 instructions:   64000000 cycles:   36228068 heartbeat IPC: 1.26220 cumulative IPC: 1.26170 (Simulation time: 0 hr 5 min 3 sec) 
Heartbeat CPU  0 instructions:   65000001 cycles:   37020886 heartbeat IPC: 1.26132 cumulative IPC: 1.26168 (Simulation time: 0 hr 5 min 8 sec) 
Heartbeat CPU  0 instructions:   66000000 cycles:   37813092 heartbeat IPC: 1.26230 cumulative IPC: 1.26171 (Simulation time: 0 hr 5 min 13 sec) 
Heartbeat CPU  0 instructions:   67000000 cycles:   38607481 heartbeat IPC: 1.25883 cumulative IPC: 1.26160 (Simulation time: 0 hr 5 min 18 sec) 
Heartbeat CPU  0 instructions:   68000000 cycles:   39398531 heartbeat IPC: 1.26414 cumulative IPC: 1.26169 (Simulation time: 0 hr 5 min 23 sec) 
Heartbeat CPU  0 instructions:   69000003 cycles:   40191633 heartbeat IPC: 1.26088 cumulative IPC: 1.26166 (Simulation time: 0 hr 5 min 28 sec) 
Heartbeat CPU  0 instructions:   70000003 cycles:   40983418 heartbeat IPC: 1.26297 cumulative IPC: 1.26171 (Simulation time: 0 hr 5 min 33 sec) 
Heartbeat CPU  0 instructions:   71000002 cycles:   41776166 heartbeat IPC: 1.26143 cumulative IPC: 1.26170 (Simulation time: 0 hr 5 min 38 sec) 
Heartbeat CPU  0 instructions:   72000000 cycles:   42570862 heartbeat IPC: 1.25834 cumulative IPC: 1.26159 (Simulation time: 0 hr 5 min 43 sec) 
Heartbeat CPU  0 instructions:   73000002 cycles:   43363077 heartbeat IPC: 1.26229 cumulative IPC: 1.26161 (Simulation time: 0 hr 5 min 48 sec) 
Heartbeat CPU  0 instructions:   74000001 cycles:   44155360 heartbeat IPC: 1.26217 cumulative IPC: 1.26163 (Simulation time: 0 hr 5 min 53 sec) 
Heartbeat CPU  0 instructions:   75000001 cycles:   44948090 heartbeat IPC: 1.26146 cumulative IPC: 1.26162 (Simulation time: 0 hr 5 min 59 sec) 
Heartbeat CPU  0 instructions:   76000000 cycles:   45740756 heartbeat IPC: 1.26156 cumulative IPC: 1.26162 (Simulation time: 0 hr 6 min 4 sec) 
Heartbeat CPU  0 instructions:   77000002 cycles:   46533767 heartbeat IPC: 1.26102 cumulative IPC: 1.26161 (Simulation time: 0 hr 6 min 9 sec) 
Heartbeat CPU  0 instructions:   78000002 cycles:   47325158 heartbeat IPC: 1.26360 cumulative IPC: 1.26166 (Simulation time: 0 hr 6 min 14 sec) 
Heartbeat CPU  0 instructions:   79000000 cycles:   48117388 heartbeat IPC: 1.26226 cumulative IPC: 1.26167 (Simulation time: 0 hr 6 min 19 sec) 
Heartbeat CPU  0 instructions:   80000000 cycles:   48909046 heartbeat IPC: 1.26317 cumulative IPC: 1.26171 (Simulation time: 0 hr 6 min 24 sec) 
Heartbeat CPU  0 instructions:   81000001 cycles:   49701880 heartbeat IPC: 1.26130 cumulative IPC: 1.26170 (Simulation time: 0 hr 6 min 29 sec) 
Heartbeat CPU  0 instructions:   82000002 cycles:   50494700 heartbeat IPC: 1.26132 cumulative IPC: 1.26169 (Simulation time: 0 hr 6 min 34 sec) 
Heartbeat CPU  0 instructions:   83000003 cycles:   51287346 heartbeat IPC: 1.26160 cumulative IPC: 1.26169 (Simulation time: 0 hr 6 min 39 sec) 
Heartbeat CPU  0 instructions:   84000000 cycles:   52079590 heartbeat IPC: 1.26223 cumulative IPC: 1.26170 (Simulation time: 0 hr 6 min 44 sec) 
Heartbeat CPU  0 instructions:   85000000 cycles:   52872017 heartbeat IPC: 1.26195 cumulative IPC: 1.26171 (Simulation time: 0 hr 6 min 49 sec) 
Heartbeat CPU  0 instructions:   86000001 cycles:   53663818 heartbeat IPC: 1.26294 cumulative IPC: 1.26173 (Simulation time: 0 hr 6 min 54 sec) 
Heartbeat CPU  0 instructions:   87000002 cycles:   54456010 heartbeat IPC: 1.26232 cumulative IPC: 1.26175 (Simulation time: 0 hr 6 min 59 sec) 
Heartbeat CPU  0 instructions:   88000000 cycles:   55248034 heartbeat IPC: 1.26259 cumulative IPC: 1.26176 (Simulation time: 0 hr 7 min 4 sec) 
Heartbeat CPU  0 instructions:   89000001 cycles:   56040423 heartbeat IPC: 1.26201 cumulative IPC: 1.26177 (Simulation time: 0 hr 7 min 9 sec) 
Heartbeat CPU  0 instructions:   90000001 cycles:   56833320 heartbeat IPC: 1.26120 cumulative IPC: 1.26176 (Simulation time: 0 hr 7 min 14 sec) 
Heartbeat CPU  0 instructions:   91000002 cycles:   57625404 heartbeat IPC: 1.26249 cumulative IPC: 1.26177 (Simulation time: 0 hr 7 min 19 sec) 
Heartbeat CPU  0 instructions:   92000000 cycles:   58420398 heartbeat IPC: 1.25787 cumulative IPC: 1.26170 (Simulation time: 0 hr 7 min 24 sec) 
Heartbeat CPU  0 instructions:   93000001 cycles:   59213186 heartbeat IPC: 1.26137 cumulative IPC: 1.26169 (Simulation time: 0 hr 7 min 29 sec) 
Heartbeat CPU  0 instructions:   94000003 cycles:   60007851 heartbeat IPC: 1.25839 cumulative IPC: 1.26163 (Simulation time: 0 hr 7 min 35 sec) 
Heartbeat CPU  0 instructions:   95000000 cycles:   60800661 heartbeat IPC: 1.26133 cumulative IPC: 1.26162 (Simulation time: 0 hr 7 min 40 sec) 
Heartbeat CPU  0 instructions:   96000000 cycles:   61592766 heartbeat IPC: 1.26246 cumulative IPC: 1.26164 (Simulation time: 0 hr 7 min 45 sec) 
Heartbeat CPU  0 instructions:   97000000 cycles:   62383290 heartbeat IPC: 1.26498 cumulative IPC: 1.26170 (Simulation time: 0 hr 7 min 50 sec) 
Heartbeat CPU  0 instructions:   98000000 cycles:   63177010 heartbeat IPC: 1.25989 cumulative IPC: 1.26167 (Simulation time: 0 hr 7 min 55 sec) 
Heartbeat CPU  0 instructions:   99000000 cycles:   63969020 heartbeat IPC: 1.26261 cumulative IPC: 1.26168 (Simulation time: 0 hr 8 min 0 sec) 
Heartbeat CPU  0 instructions:  100000000 cycles:   64761590 heartbeat IPC: 1.26172 cumulative IPC: 1.26168 (Simulation time: 0 hr 8 min 5 sec) 
Heartbeat CPU  0 instructions:  101000003 cycles:   65555271 heartbeat IPC: 1.25996 cumulative IPC: 1.26165 (Simulation time: 0 hr 8 min 10 sec) 
Heartbeat CPU  0 instructions:  102000003 cycles:   66348040 heartbeat IPC: 1.26140 cumulative IPC: 1.26165 (Simulation time: 0 hr 8 min 15 sec) 
Heartbeat CPU  0 instructions:  103000001 cycles:   67142504 heartbeat IPC: 1.25871 cumulative IPC: 1.26160 (Simulation time: 0 hr 8 min 20 sec) 
Heartbeat CPU  0 instructions:  104000000 cycles:   67935797 heartbeat IPC: 1.26057 cumulative IPC: 1.26159 (Simulation time: 0 hr 8 min 25 sec) 
Heartbeat CPU  0 instructions:  105000002 cycles:   68728003 heartbeat IPC: 1.26230 cumulative IPC: 1.26160 (Simulation time: 0 hr 8 min 30 sec) 
Heartbeat CPU  0 instructions:  106000000 cycles:   69520035 heartbeat IPC: 1.26257 cumulative IPC: 1.26161 (Simulation time: 0 hr 8 min 35 sec) 
Heartbeat CPU  0 instructions:  107000000 cycles:   70310731 heartbeat IPC: 1.26471 cumulative IPC: 1.26166 (Simulation time: 0 hr 8 min 39 sec) 
Heartbeat CPU  0 instructions:  108000000 cycles:   71102811 heartbeat IPC: 1.26250 cumulative IPC: 1.26167 (Simulation time: 0 hr 8 min 44 sec) 
Heartbeat CPU  0 instructions:  109000000 cycles:   71894545 heartbeat IPC: 1.26305 cumulative IPC: 1.26169 (Simulation time: 0 hr 8 min 49 sec) 
Heartbeat CPU  0 instructions:  110000000 cycles:   72686282 heartbeat IPC: 1.26305 cumulative IPC: 1.26171 (Simulation time: 0 hr 8 min 53 sec) 
Heartbeat CPU  0 instructions:  111000003 cycles:   73479934 heartbeat IPC: 1.26000 cumulative IPC: 1.26169 (Simulation time: 0 hr 8 min 58 sec) 
Heartbeat CPU  0 instructions:  112000000 cycles:   74271968 heartbeat IPC: 1.26257 cumulative IPC: 1.26170 (Simulation time: 0 hr 9 min 3 sec) 
Heartbeat CPU  0 instructions:  113000002 cycles:   75066369 heartbeat IPC: 1.25881 cumulative IPC: 1.26166 (Simulation time: 0 hr 9 min 8 sec) 
Heartbeat CPU  0 instructions:  114000002 cycles:   75858598 heartbeat IPC: 1.26226 cumulative IPC: 1.26167 (Simulation time: 0 hr 9 min 13 sec) 
Heartbeat CPU  0 instructions:  115000001 cycles:   76650839 heartbeat IPC: 1.26224 cumulative IPC: 1.26168 (Simulation time: 0 hr 9 min 18 sec) 
Heartbeat CPU  0 instructions:  116000000 cycles:   77445384 heartbeat IPC: 1.25858 cumulative IPC: 1.26163 (Simulation time: 0 hr 9 min 23 sec) 
Heartbeat CPU  0 instructions:  117000001 cycles:   78237066 heartbeat IPC: 1.26313 cumulative IPC: 1.26165 (Simulation time: 0 hr 9 min 28 sec) 
Heartbeat CPU  0 instructions:  118000002 cycles:   79028760 heartbeat IPC: 1.26312 cumulative IPC: 1.26167 (Simulation time: 0 hr 9 min 33 sec) 
Heartbeat CPU  0 instructions:  119000002 cycles:   79819913 heartbeat IPC: 1.26398 cumulative IPC: 1.26170 (Simulation time: 0 hr 9 min 38 sec) 
Heartbeat CPU  0 instructions:  120000000 cycles:   80613096 heartbeat IPC: 1.26074 cumulative IPC: 1.26169 (Simulation time: 0 hr 9 min 43 sec) 
Heartbeat CPU  0 instructions:  121000001 cycles:   81407190 heartbeat IPC: 1.25930 cumulative IPC: 1.26166 (Simulation time: 0 hr 9 min 48 sec) 
Heartbeat CPU  0 instructions:  122000001 cycles:   82199656 heartbeat IPC: 1.26188 cumulative IPC: 1.26166 (Simulation time: 0 hr 9 min 53 sec) 
Heartbeat CPU  0 instructions:  123000003 cycles:   82993133 heartbeat IPC: 1.26028 cumulative IPC: 1.26165 (Simulation time: 0 hr 9 min 59 sec) 
Heartbeat CPU  0 instructions:  124000000 cycles:   83786369 heartbeat IPC: 1.26066 cumulative IPC: 1.26163 (Simulation time: 0 hr 10 min 4 sec) 
Heartbeat CPU  0 instructions:  125000003 cycles:   84577942 heartbeat IPC: 1.26331 cumulative IPC: 1.26165 (Simulation time: 0 hr 10 min 9 sec) 
Heartbeat CPU  0 instructions:  126000001 cycles:   85369908 heartbeat IPC: 1.26268 cumulative IPC: 1.26167 (Simulation time: 0 hr 10 min 14 sec) 
Heartbeat CPU  0 instructions:  127000002 cycles:   86160460 heartbeat IPC: 1.26494 cumulative IPC: 1.26170 (Simulation time: 0 hr 10 min 19 sec) 
Heartbeat CPU  0 instructions:  128000000 cycles:   86950076 heartbeat IPC: 1.26644 cumulative IPC: 1.26176 (Simulation time: 0 hr 10 min 24 sec) 
Heartbeat CPU  0 instructions:  129000001 cycles:   87741809 heartbeat IPC: 1.26305 cumulative IPC: 1.26177 (Simulation time: 0 hr 10 min 29 sec) 
Heartbeat CPU  0 instructions:  130000002 cycles:   88534679 heartbeat IPC: 1.26124 cumulative IPC: 1.26177 (Simulation time: 0 hr 10 min 34 sec) 
Heartbeat CPU  0 instructions:  131000001 cycles:   89327494 heartbeat IPC: 1.26133 cumulative IPC: 1.26176 (Simulation time: 0 hr 10 min 39 sec) 
Heartbeat CPU  0 instructions:  132000000 cycles:   90120673 heartbeat IPC: 1.26075 cumulative IPC: 1.26175 (Simulation time: 0 hr 10 min 44 sec) 
Heartbeat CPU  0 instructions:  133000000 cycles:   90914476 heartbeat IPC: 1.25976 cumulative IPC: 1.26173 (Simulation time: 0 hr 10 min 49 sec) 
Heartbeat CPU  0 instructions:  134000001 cycles:   91708337 heartbeat IPC: 1.25967 cumulative IPC: 1.26171 (Simulation time: 0 hr 10 min 54 sec) 
Heartbeat CPU  0 instructions:  135000001 cycles:   92500185 heartbeat IPC: 1.26287 cumulative IPC: 1.26172 (Simulation time: 0 hr 10 min 59 sec) 
Heartbeat CPU  0 instructions:  136000000 cycles:   93292139 heartbeat IPC: 1.26270 cumulative IPC: 1.26173 (Simulation time: 0 hr 11 min 4 sec) 
Heartbeat CPU  0 instructions:  137000000 cycles:   94082410 heartbeat IPC: 1.26539 cumulative IPC: 1.26177 (Simulation time: 0 hr 11 min 9 sec) 
Heartbeat CPU  0 instructions:  138000000 cycles:   94875457 heartbeat IPC: 1.26096 cumulative IPC: 1.26176 (Simulation time: 0 hr 11 min 14 sec) 
Heartbeat CPU  0 instructions:  139000000 cycles:   95667307 heartbeat IPC: 1.26287 cumulative IPC: 1.26177 (Simulation time: 0 hr 11 min 19 sec) 
Heartbeat CPU  0 instructions:  140000000 cycles:   96460883 heartbeat IPC: 1.26012 cumulative IPC: 1.26175 (Simulation time: 0 hr 11 min 24 sec) 
Finished CPU 0 instructions: 100000000 cycles: 79254819 cumulative IPC: 1.26175 (Simulation time: 0 hr 11 min 24 sec) 

ChampSim completed all CPUs

[ROI Statistics]
Core_0_instructions 100000000
Core_0_cycles 79254819
Core_0_IPC 1.26175

Core_0_branch_prediction_accuracy 99.97505
Core_0_branch_MPKI 0.00438
Core_0_average_ROB_occupancy_at_mispredict 254.17352

Core_0_L1D_total_access 20615142
Core_0_L1D_total_hit 19291769
Core_0_L1D_total_miss 1323373
Core_0_L1D_loads 13598007
Core_0_L1D_load_hit 12276167
Core_0_L1D_load_miss 1321840
Core_0_L1D_RFOs 7017135
Core_0_L1D_RFO_hit 7015602
Core_0_L1D_RFO_miss 1533
Core_0_L1D_prefetches 0
Core_0_L1D_prefetch_hit 0
Core_0_L1D_prefetch_miss 0
Core_0_L1D_writebacks 0
Core_0_L1D_writeback_hit 0
Core_0_L1D_writeback_miss 0
Core_0_L1D_prefetch_requested 0
Core_0_L1D_prefetch_dropped 0
Core_0_L1D_prefetch_issued 0
Core_0_L1D_prefetch_filled 0
Core_0_L1D_prefetch_useful 0
Core_0_L1D_prefetch_useless 0
Core_0_L1D_prefetch_late 0
Core_0_L1D_average_miss_latency 17.95200

Core_0_L1D_rq_access 35083008
Core_0_L1D_rq_forward 0
Core_0_L1D_rq_merged 21072565
Core_0_L1D_rq_to_cache 14010443
Core_0_L1D_rq_full 0

Core_0_L1D_wq_access 7020548
Core_0_L1D_wq_forward 0
Core_0_L1D_wq_merged 0
Core_0_L1D_wq_to_cache 7020548
Core_0_L1D_wq_full 0

Core_0_L1D_pq_access 0
Core_0_L1D_pq_forward 0
Core_0_L1D_pq_merged 0
Core_0_L1D_pq_to_cache 0
Core_0_L1D_pq_full 0

Core_0_L1D_acc_epochs 92874
Core_0_L1D_acc_level_0 92874
Core_0_L1D_acc_level_1 0
Core_0_L1D_acc_level_2 0
Core_0_L1D_acc_level_3 0
Core_0_L1D_acc_level_4 0
Core_0_L1D_acc_level_5 0
Core_0_L1D_acc_level_6 0
Core_0_L1D_acc_level_7 0
Core_0_L1D_acc_level_8 0
Core_0_L1D_acc_level_9 0

Core_0_L1I_total_access 20549863
Core_0_L1I_total_hit 20549863
Core_0_L1I_total_miss 0
Core_0_L1I_loads 20549863
Core_0_L1I_load_hit 20549863
Core_0_L1I_load_miss 0
Core_0_L1I_RFOs 0
Core_0_L1I_RFO_hit 0
Core_0_L1I_RFO_miss 0
Core_0_L1I_prefetches 0
Core_0_L1I_prefetch_hit 0
Core_0_L1I_prefetch_miss 0
Core_0_L1I_writebacks 0
Core_0_L1I_writeback_hit 0
Core_0_L1I_writeback_miss 0
Core_0_L1I_prefetch_requested 0
Core_0_L1I_prefetch_dropped 0
Core_0_L1I_prefetch_issued 0
Core_0_L1I_prefetch_filled 0
Core_0_L1I_prefetch_useful 0
Core_0_L1I_prefetch_useless 0
Core_0_L1I_prefetch_late 0
Core_0_L1I_average_miss_latency -nan

Core_0_L1I_rq_access 100000003
Core_0_L1I_rq_forward 0
Core_0_L1I_rq_merged 79450140
Core_0_L1I_rq_to_cache 20549863
Core_0_L1I_rq_full 0

Core_0_L1I_wq_access 0
Core_0_L1I_wq_forward 0
Core_0_L1I_wq_merged 0
Core_0_L1I_wq_to_cache 0
Core_0_L1I_wq_full 0

Core_0_L1I_pq_access 0
Core_0_L1I_pq_forward 0
Core_0_L1I_pq_merged 0
Core_0_L1I_pq_to_cache 0
Core_0_L1I_pq_full 0

Core_0_L1I_acc_epochs 92874
Core_0_L1I_acc_level_0 92874
Core_0_L1I_acc_level_1 0
Core_0_L1I_acc_level_2 0
Core_0_L1I_acc_level_3 0
Core_0_L1I_acc_level_4 0
Core_0_L1I_acc_level_5 0
Core_0_L1I_acc_level_6 0
Core_0_L1I_acc_level_7 0
Core_0_L1I_acc_level_8 0
Core_0_L1I_acc_level_9 0

Core_0_L2C_total_access 3517190
Core_0_L2C_total_hit 2160992
Core_0_L2C_total_miss 1356198
Core_0_L2C_loads 1321840
Core_0_L2C_load_hit 1282279
Core_0_L2C_load_miss 39561
Core_0_L2C_RFOs 1533
Core_0_L2C_RFO_hit 217
Core_0_L2C_RFO_miss 1316
Core_0_L2C_prefetches 1315323
Core_0_L2C_prefetch_hit 2
Core_0_L2C_prefetch_miss 1315321
Core_0_L2C_writebacks 878494
Core_0_L2C_writeback_hit 878494
Core_0_L2C_writeback_miss 0
Core_0_L2C_prefetch_requested 2228119
Core_0_L2C_prefetch_dropped 0
Core_0_L2C_prefetch_issued 2228119
Core_0_L2C_prefetch_filled 1844224
Core_0_L2C_prefetch_useful 1797297
Core_0_L2C_prefetch_useless 46750
Core_0_L2C_prefetch_late 7411
Core_0_L2C_average_miss_latency 159.81008

Core_0_L2C_rq_access 1323373
Core_0_L2C_rq_forward 0
Core_0_L2C_rq_merged 0
Core_0_L2C_rq_to_cache 1323373
Core_0_L2C_rq_full 0

Core_0_L2C_wq_access 878494
Core_0_L2C_wq_forward 0
Core_0_L2C_wq_merged 0
Core_0_L2C_wq_to_cache 878494
Core_0_L2C_wq_full 0

Core_0_L2C_pq_access 2228119
Core_0_L2C_pq_forward 0
Core_0_L2C_pq_merged 704
Core_0_L2C_pq_to_cache 2227415
Core_0_L2C_pq_full 0

Core_0_L2C_acc_epochs 92874
Core_0_L2C_acc_level_0 17
Core_0_L2C_acc_level_1 5
Core_0_L2C_acc_level_2 3
Core_0_L2C_acc_level_3 63
Core_0_L2C_acc_level_4 301
Core_0_L2C_acc_level_5 1155
Core_0_L2C_acc_level_6 979
Core_0_L2C_acc_level_7 1051
Core_0_L2C_acc_level_8 3049
Core_0_L2C_acc_level_9 86251

Core_0_LLC_total_access 2367409
Core_0_LLC_total_hit 1122083
Core_0_LLC_total_miss 1245326
Core_0_LLC_loads 32152
Core_0_LLC_load_hit 18097
Core_0_LLC_load_miss 14055
Core_0_LLC_RFOs 1316
Core_0_LLC_RFO_hit 1316
Core_0_LLC_RFO_miss 0
Core_0_LLC_prefetches 1456031
Core_0_LLC_prefetch_hit 592358
Core_0_LLC_prefetch_miss 863673
Core_0_LLC_writebacks 877910
Core_0_LLC_writeback_hit 510312
Core_0_LLC_writeback_miss 367598
Core_0_LLC_prefetch_requested 0
Core_0_LLC_prefetch_dropped 0
Core_0_LLC_prefetch_issued 0
Core_0_LLC_prefetch_filled 1210947
Core_0_LLC_prefetch_useful 996
Core_0_LLC_prefetch_useless 1189640
Core_0_LLC_prefetch_late 0
Core_0_LLC_average_miss_latency 156.98178

Core_0_LLC_rq_access 33468
Core_0_LLC_rq_forward 0
Core_0_LLC_rq_merged 0
Core_0_LLC_rq_to_cache 33468
Core_0_LLC_rq_full 0

Core_0_LLC_wq_access 877910
Core_0_LLC_wq_forward 0
Core_0_LLC_wq_merged 0
Core_0_LLC_wq_to_cache 877910
Core_0_LLC_wq_full 290

Core_0_LLC_pq_access 2225449
Core_0_LLC_pq_forward 0
Core_0_LLC_pq_merged 3082
Core_0_LLC_pq_to_cache 2222367
Core_0_LLC_pq_full 0

Core_0_LLC_acc_epochs 94201
Core_0_LLC_acc_level_0 93921
Core_0_LLC_acc_level_1 164
Core_0_LLC_acc_level_2 61
Core_0_LLC_acc_level_3 17
Core_0_LLC_acc_level_4 1
Core_0_LLC_acc_level_5 20
Core_0_LLC_acc_level_6 3
Core_0_LLC_acc_level_7 5
Core_0_LLC_acc_level_8 0
Core_0_LLC_acc_level_9 9

Core_0_major_page_fault 0
Core_0_minor_page_fault 19264

[MLOP] History of tracked zone:
IIIIIIIIIIIIIIIIIIIIIIIIIIIIIIIIIIIIIIIIIIIIIIIIIIIIIIIIIIIIIIII
A2222222222222222IIIIIIIIIIIIIIIIIIIIIIIIIIIIIIIIIIIIIIIIIIIIIII
AA2222222222222222IIIIIIIIIIIIIIIIIIIIIIIIIIIIIIIIIIIIIIIIIIIIII
AAA2222222222222222IIIIIIIIIIIIIIIIIIIIIIIIIIIIIIIIIIIIIIIIIIIII
AAAA2222222222222222IIIIIIIIIIIIIIIIIIIIIIIIIIIIIIIIIIIIIIIIIIII
AAAAA2222222222222222IIIIIIIIIIIIIIIIIIIIIIIIIIIIIIIIIIIIIIIIIII
AAAAAA2222222222222222IIIIIIIIIIIIIIIIIIIIIIIIIIIIIIIIIIIIIIIIII
AAAAAAA2222222222222222IIIIIIIIIIIIIIIIIIIIIIIIIIIIIIIIIIIIIIIII
AAAAAAAA2222222222222222IIIIIIIIIIIIIIIIIIIIIIIIIIIIIIIIIIIIIIII
AAAAAAAAA2222222222222222IIIIIIIIIIIIIIIIIIIIIIIIIIIIIIIIIIIIIII
AAAAAAAAAA2222222222222222IIIIIIIIIIIIIIIIIIIIIIIIIIIIIIIIIIIIII
AAAAAAAAAAA2222222222222222IIIIIIIIIIIIIIIIIIIIIIIIIIIIIIIIIIIII
AAAAAAAAAAAA2222222222222222IIIIIIIIIIIIIIIIIIIIIIIIIIIIIIIIIIII
AAAAAAAAAAAAA2222222222222222IIIIIIIIIIIIIIIIIIIIIIIIIIIIIIIIIII
AAAAAAAAAAAAAA2222222222222222IIIIIIIIIIIIIIIIIIIIIIIIIIIIIIIIII
AAAAAAAAAAAAAAA2222222222222222IIIIIIIIIIIIIIIIIIIIIIIIIIIIIIIII
AAAAAAAAAAAAAAAA2222222222222222IIIIIIIIIIIIIIIIIIIIIIIIIIIIIIII
AAAAAAAAAAAAAAAAA2222222222222222IIIIIIIIIIIIIIIIIIIIIIIIIIIIIII
AAAAAAAAAAAAAAAAAA2222222222222222IIIIIIIIIIIIIIIIIIIIIIIIIIIIII
AAAAAAAAAAAAAAAAAAA2222222222222222IIIIIIIIIIIIIIIIIIIIIIIIIIIII
AAAAAAAAAAAAAAAAAAAA2222222222222222IIIIIIIIIIIIIIIIIIIIIIIIIIII
AAAAAAAAAAAAAAAAAAAAA2222222222222222IIIIIIIIIIIIIIIIIIIIIIIIIII
AAAAAAAAAAAAAAAAAAAAAA2222222222222222IIIIIIIIIIIIIIIIIIIIIIIIII
AAAAAAAAAAAAAAAAAAAAAAA2222222222222222IIIIIIIIIIIIIIIIIIIIIIIII
AAAAAAAAAAAAAAAAAAAAAAAA2222222222222222IIIIIIIIIIIIIIIIIIIIIIII
AAAAAAAAAAAAAAAAAAAAAAAAA2222222222222222IIIIIIIIIIIIIIIIIIIIIII
AAAAAAAAAAAAAAAAAAAAAAAAAA2222222222222222IIIIIIIIIIIIIIIIIIIIII
AAAAAAAAAAAAAAAAAAAAAAAAAAA2222222222222222IIIIIIIIIIIIIIIIIIIII
AAAAAAAAAAAAAAAAAAAAAAAAAAAA2222222222222222IIIIIIIIIIIIIIIIIIII
AAAAAAAAAAAAAAAAAAAAAAAAAAAAA2222222222222222IIIIIIIIIIIIIIIIIII
AAAAAAAAAAAAAAAAAAAAAAAAAAAAAA2222222222222222IIIIIIIIIIIIIIIIII
AAAAAAAAAAAAAAAAAAAAAAAAAAAAAAA2222222222222222IIIIIIIIIIIIIIIII
AAAAAAAAAAAAAAAAAAAAAAAAAAAAAAAA2222222222222222IIIIIIIIIIIIIIII
AAAAAAAAAAAAAAAAAAAAAAAAAAAAAAAAA2222222222222222IIIIIIIIIIIIIII
AAAAAAAAAAAAAAAAAAAAAAAAAAAAAAAAAA2222222222222222IIIIIIIIIIIIII
AAAAAAAAAAAAAAAAAAAAAAAAAAAAAAAAAAA2222222222222222IIIIIIIIIIIII
AAAAAAAAAAAAAAAAAAAAAAAAAAAAAAAAAAAA2222222222222222IIIIIIIIIIII
AAAAAAAAAAAAAAAAAAAAAAAAAAAAAAAAAAAAA2222222222222222IIIIIIIIIII
AAAAAAAAAAAAAAAAAAAAAAAAAAAAAAAAAAAAAA2222222222222222IIIIIIIIII
AAAAAAAAAAAAAAAAAAAAAAAAAAAAAAAAAAAAAAA2222222222222222IIIIIIIII
AAAAAAAAAAAAAAAAAAAAAAAAAAAAAAAAAAAAAAAA2222222222222222IIIIIIII
AAAAAAAAAAAAAAAAAAAAAAAAAAAAAAAAAAAAAAAAA2222222222222222IIIIIII
AAAAAAAAAAAAAAAAAAAAAAAAAAAAAAAAAAAAAAAAAA2222222222222222IIIIII
AAAAAAAAAAAAAAAAAAAAAAAAAAAAAAAAAAAAAAAAAAA2222222222222222IIIII
AAAAAAAAAAAAAAAAAAAAAAAAAAAAAAAAAAAAAAAAAAAA2222222222222222IIII
AAAAAAAAAAAAAAAAAAAAAAAAAAAAAAAAAAAAAAAAAAAAA2222222222222222III
AAAAAAAAAAAAAAAAAAAAAAAAAAAAAAAAAAAAAAAAAAAAAA2222222222222222II
AAAAAAAAAAAAAAAAAAAAAAAAAAAAAAAAAAAAAAAAAAAAAAA2222222222222222I
AAAAAAAAAAAAAAAAAAAAAAAAAAAAAAAAAAAAAAAAAAAAAAAA2222222222222222
AAAAAAAAAAAAAAAAAAAAAAAAAAAAAAAAAAAAAAAAAAAAAAAAA222222222222222
AAAAAAAAAAAAAAAAAAAAAAAAAAAAAAAAAAAAAAAAAAAAAAAAAA22222222222222
AAAAAAAAAAAAAAAAAAAAAAAAAAAAAAAAAAAAAAAAAAAAAAAAAAA2222222222222
AAAAAAAAAAAAAAAAAAAAAAAAAAAAAAAAAAAAAAAAAAAAAAAAAAAA222222222222
AAAAAAAAAAAAAAAAAAAAAAAAAAAAAAAAAAAAAAAAAAAAAAAAAAAAA22222222222
AAAAAAAAAAAAAAAAAAAAAAAAAAAAAAAAAAAAAAAAAAAAAAAAAAAAAA2222222222
AAAAAAAAAAAAAAAAAAAAAAAAAAAAAAAAAAAAAAAAAAAAAAAAAAAAAAA222222222
AAAAAAAAAAAAAAAAAAAAAAAAAAAAAAAAAAAAAAAAAAAAAAAAAAAAAAAA22222222
AAAAAAAAAAAAAAAAAAAAAAAAAAAAAAAAAAAAAAAAAAAAAAAAAAAAAAAAA2222222
AAAAAAAAAAAAAAAAAAAAAAAAAAAAAAAAAAAAAAAAAAAAAAAAAAAAAAAAAA222222
AAAAAAAAAAAAAAAAAAAAAAAAAAAAAAAAAAAAAAAAAAAAAAAAAAAAAAAAAAA22222
AAAAAAAAAAAAAAAAAAAAAAAAAAAAAAAAAAAAAAAAAAAAAAAAAAAAAAAAAAAA2222
AAAAAAAAAAAAAAAAAAAAAAAAAAAAAAAAAAAAAAAAAAAAAAAAAAAAAAAAAAAAA222
AAAAAAAAAAAAAAAAAAAAAAAAAAAAAAAAAAAAAAAAAAAAAAAAAAAAAAAAAAAAAA22
AAAAAAAAAAAAAAAAAAAAAAAAAAAAAAAAAAAAAAAAAAAAAAAAAAAAAAAAAAAAAAA2
AAAAAAAAAAAAAAAAAAAAAAAAAAAAAAAAAAAAAAAAAAAAAAAAAAAAAAAAAAAAAAAA
AAAAAAAAAAAAAAAAAAAAAAAAAAAAAAAAAAAAAAAAAAAIAAAAAAAAAAAAAAAAAAAA
AAAAAAAAAAAAAAAAAAAAAAAAAAAAAAAAAAAAAAAAAAAIAAAAAAAAAAAAAAIAAAAA
AAAAAAAAAAAAAAAAAAAAAAAAAAAAAAAAAAAAAAAAAAAIAAAAAAAAAAAAAAIIAAAA
AAAAAAAAAAAAAAAAAAAAAAAAAAAAAAAAAAAAAAAAAAAIIAAAAAAAAAAAAAIIAAAA
AAAAAAAAAAAAAAAAAAAAAAAAAAAAAAAAAAAAAAAAAAAIIIAAAAAAAAAAAAIIAAAA
AAAAAAAAAAAAAAAAAAAAAAAAAAAAAAAAAAAAAAAAAAAIIIIAAAAAAAAAAAIIAAAA
AAAAAAAAAAAAAAAAAAAAAAAAAAAAAAAAAAAAAAAAAAAIIIIIAAAAAAAAAAIIAAAA
AAAAAAAAAAAAAAAAAAAAAAAAAAAAAAAAAAAAAAAAAAAIIIIIIAAAAAAAAAIIAAAA
AAAAAAAAAAAAAAAAAAAAAAAAAAAAAAAAAAAAAAAAAAAIIIIIIIAAAAAAAAIIAAAA
AAAAAAAAAAAAAAAAAAAAAAAAAAAAAAAAAAAAAAAAAAAIIIIIIIIAAAAAAAIIAAAA
AAAAAAAAAAAAAAAAAAAAAAAAAAAAAAAAAAAAAAAAAAAIIIIIIIIIAAAAAAIIAAAA
AAAAAAAAAAAAAAAAAAAAAAAAAAAAAAAAAAAAAAAAAAAIIIIIIIIIIAAAAAIIAAAA
AAAAAAAAAAAAAAAAAAAAAAAAAAAAAAAAAAAAAAAAAAAIIIIIIIIIIIAAAAIIAAAA
AAAAAAAAAAAAAAAAAAAAAAAAAAAAAAAAAAAAAAAAAAAIIIIIIIIIIIIAAAIIAAAA
AAAAAAAAAAAAAAAAAAAAAAAAAAAAAAAAAAAAAAAAAAAIIIIIIIIIIIIIAAIIAAAA
AAAAAAAAAAAAAAAAAAAAAAAAAAAAAAAAAAAAAAAAAAAIIIIIIIIIIIIIIAIIAAAA
AAAAAAAAAAAAAAAAAAAAAAAAAAAAAAAAAAAAAAAAAAAIIIIIIIIIIIIIIIIIAAAA
AAAAAAAAAAAAAAAAAAAAAAAAAAAAAAAAAAAAAAAAAAAIIIIIIIIIIIIIIIIIIAAA
AAAAAAAAAAAAAAAAAAAAAAAAAAAAAIAAAAAAAAAAAAAIIIIIIIIIIIIIIIIIIAAA
AAAAAAAAAAAAAAAAAAAAAAAAAAAAAIIAAAAAAAAAAAAIIIIIIIIIIIIIIIIIIAAA
AAAAAAAAAAAAAAAAAAAAAAAAAAAAAIIIAAAAAAAAAAAIIIIIIIIIIIIIIIIIIAAA
AAAAAAAAAAAAAAAAAAAAAAAAAAAAAIIIIAAAAAAAAAAIIIIIIIIIIIIIIIIIIAAA
AAAAAAAAAAAAAAAAAAAAAAAAAAAAAIIIIIAAAAAAAAAIIIIIIIIIIIIIIIIIIAAA
AAAAAAAAAAAAAAAAAAAAAAAAAAAAAIIIIIIAAAAAAAAIIIIIIIIIIIIIIIIIIAAA
AAAAAAAAAAAAAAAAAAAAAAAAAAAAAIIIIIIIAAAAAAAIIIIIIIIIIIIIIIIIIAAA
AAAAAAAAAAAAAAAAAAAAAAAAAAAAAIIIIIIIIAAAAAAIIIIIIIIIIIIIIIIIIAAA
AAAAAAAAAAAAAAAAAAAAAAAAAAAAAIIIIIIIIIAAAAAIIIIIIIIIIIIIIIIIIAAA
AAAAAAAAAAAAAAAAAAAAAAAAAAAAAIIIIIIIIIIAAAAIIIIIIIIIIIIIIIIIIAAA
AIAAAAAAAAAAAAAAAAAAAAAAAAAAAIIIIIIIIIIAAAAIIIIIIIIIIIIIIIIIIAAA
AIIAAAAAAAAAAAAAAAAAAAAAAAAAAIIIIIIIIIIAAAAIIIIIIIIIIIIIIIIIIAAA
AIIIAAAAAAAAAAAAAAAAAAAAAAAAAIIIIIIIIIIAAAAIIIIIIIIIIIIIIIIIIAAA
AIIIIAAAAAAAAAAAAAAAAAAAAAAAAIIIIIIIIIIAAAAIIIIIIIIIIIIIIIIIIAAA
AIIIIIAAAAAAAAAAAAAAAAAAAAAAAIIIIIIIIIIAAAAIIIIIIIIIIIIIIIIIIAAA
AIIIIIIAAAAAAAAAAAAAAAAAAAAAAIIIIIIIIIIAAAAIIIIIIIIIIIIIIIIIIAAA
AIIIIIIIAAAAAAAAAAAAAAAAAAAAAIIIIIIIIIIAAAAIIIIIIIIIIIIIIIIIIAAA
AIIIIIIIIAAAAAAAAAAAAAAAAAAAAIIIIIIIIIIAAAAIIIIIIIIIIIIIIIIIIAAA
AIIIIIIIIAAIAAAAAAAAAAAAAAAAAIIIIIIIIIIAAAAIIIIIIIIIIIIIIIIIIAAA
AIIIIIIIIAAIIAAAAAAAAAAAAAAAAIIIIIIIIIIAAAAIIIIIIIIIIIIIIIIIIAAA
AIIIIIIIIAAIIIAAAAAAAAAAAAAAAIIIIIIIIIIAAAAIIIIIIIIIIIIIIIIIIAAA
AIIIIIIIIAAIIIIAAAAAAAAAAAAAAIIIIIIIIIIAAAAIIIIIIIIIIIIIIIIIIAAA
AIIIIIIIIAAIIIIIAAAAAAAAAAAAAIIIIIIIIIIAAAAIIIIIIIIIIIIIIIIIIAAA
AIIIIIIIIAAIIIIIIAAAAAAAAAAAAIIIIIIIIIIAAAAIIIIIIIIIIIIIIIIIIAAA
AIIIIIIIIAAIIIIIIIAAAAAAAAAAAIIIIIIIIIIAAAAIIIIIIIIIIIIIIIIIIAAA
AIIIIIIIIAAIIIIIIIIAAAAAAAAAAIIIIIIIIIIAAAAIIIIIIIIIIIIIIIIIIAAA
AIIIIIIIIAAIIIIIIIIIAAAAAAAAAIIIIIIIIIIAAAAIIIIIIIIIIIIIIIIIIAAA
AIIIIIIIIAAIIIIIIIIIIAAAAAAAAIIIIIIIIIIAAAAIIIIIIIIIIIIIIIIIIAAA
AIIIIIIIIAAIIIIIIIIIIIAAAAAAAIIIIIIIIIIAAAAIIIIIIIIIIIIIIIIIIAAA
AIIIIIIIIAAIIIIIIIIIIIIAAAAAAIIIIIIIIIIAAAAIIIIIIIIIIIIIIIIIIAAA
AIIIIIIIIAAIIIIIIIIIIIIIAAAAAIIIIIIIIIIAAAAIIIIIIIIIIIIIIIIIIAAA
AIIIIIIIIAAIIIIIIIIIIIIIIAAAAIIIIIIIIIIAAAAIIIIIIIIIIIIIIIIIIAAA
AIIIIIIIIAAIIIIIIIIIIIIIIIAAAIIIIIIIIIIAAAAIIIIIIIIIIIIIIIIIIAAA
AIIIIIIIIAAIIIIIIIIIIIIIIIIAAIIIIIIIIIIAAAAIIIIIIIIIIIIIIIIIIAAA
AIIIIIIIIAAIIIIIIIIIIIIIIIIIAIIIIIIIIIIAAAAIIIIIIIIIIIIIIIIIIAAA
AIIIIIIIIAAIIIIIIIIIIIIIIIIIAIIIIIIIIIIIAAAIIIIIIIIIIIIIIIIIIAAA
AIIIIIIIIAAIIIIIIIIIIIIIIIIIAIIIIIIIIIIIAAAIIIIIIIIIIIIIIIIIIIAA
AIIIIIIIIAAIIIIIIIIIIIIIIIIIAIIIIIIIIIIIAAAIIIIIIIIIIIIIIIIIIIIA
AIIIIIIIIAAIIIIIIIIIIIIIIIIIAIIIIIIIIIIIAAAIIIIIIIIIIIIIIIIIIIII
[MLOP] Prefetch Degree Mean: 16.00000
[MLOP] Prefetch Degree SD: 0.00000
[MLOP] Max Score Left Mean (%): 75.88445
[MLOP] Max Score Left SD (%): 2.03885
[MLOP] Max Score Right Mean (%): 99.77056
[MLOP] Max Score Right SD (%): 0.60427

Channel_0_RQ_row_buffer_hit 250269
Channel_0_RQ_row_buffer_miss 627459
Channel_0_WQ_row_buffer_hit 266613
Channel_0_WQ_row_buffer_miss 609825
Channel_0_WQ_full 12654
Channel_0_dbus_congested 892495

avg_congested_cycle 10

DRAM_bw_pochs 376801
DRAM_bw_level_0 145649
DRAM_bw_level_1 209462
DRAM_bw_level_2 8450
DRAM_bw_level_3 13240
