*************************************************
   ChampSim Multicore Out-of-Order Simulator
   Last compiled: Feb  6 2025 20:33:19
*************************************************
parsing config file: /home/wzz/Pythia/config/pythia.ini

trace_0 /home/wzz/Pythia/traces/649.fotonik3d_s-1176B.champsimtrace.xz
adding L2C_PREFETCHER: Scooby
Initialize SHIP state
warmup_instructions 40000000
simulation_instructions 100000000
champsim_seed 273
measure_ipc 0
measure_ipc_epoch 1000
measure_dram_bw 1
measure_dram_bw_epoch 256
measure_cache_acc 1
measure_cache_acc_epoch 1024
l1d_perfect 0
l2c_perfect 0
llc_perfect 0
l1d_semi_perfect 0
l2c_semi_perfect 0
llc_semi_perfect 0
semi_perfect_cache_page_buffer_size 64

num_cpus 1
cpu_freq 4000
dram_io_freq 2400
page_size 4096
block_size 64
max_read_per_cycle 8
max_fill_per_cycle 1
dram_channels 1
log2_dram_channels 0
dram_ranks 1
dram_banks 8
dram_rows 65536
dram_columns 128
dram_row_size 8
dram_size 4096
dram_pages 1048576

fetch_width 6
decode_width 6
exec_width 4
lq_width 2
sq_width 2
retire_width 4
scheduler_size 128
branch_mispredict_penalty 20
rob_size 256
lq_size 72
sq_size 56
num_instr_destinations_sparc 4
num_instr_destinations 2
num_instr_sources 4

itlb_set 16
itlb_way 8
itlb_rq_size 16
itlb_wq_size 16
itlb_pq_size 0
itlb_mshr_size 8
itlb_latency 1

dtlb_set 16
dtlb_way 4
dtlb_rq_size 16
dtlb_wq_size 16
dtlb_pq_size 0
dtlb_mshr_size 8
dtlb_latency 1

stlb_set 128
stlb_way 12
stlb_rq_size 32
stlb_wq_size 32
stlb_pq_size 0
stlb_mshr_size 16
stlb_latency 8

l1i_size 32
l1i_set 64
l1i_way 8
l1i_rq_size 64
l1i_wq_size 64
l1i_pq_size 8
l1i_mshr_size 8
l1i_latency 1

l1d_size 32
l1d_set 64
l1d_way 8
l1d_rq_size 64
l1d_wq_size 64
l1d_pq_size 8
l1d_mshr_size 16
l1d_latency 4

l2c_size 256
l2c_set 512
l2c_way 8
l2c_rq_size 32
l2c_wq_size 32
l2c_pq_size 32
l2c_mshr_size 32
l2c_latency 10

llc_size 2048
llc_set 2048
llc_way 16
llc_rq_size 32
llc_wq_size 32
llc_pq_size 32
llc_mshr_size 64
llc_latency 20

dram_channel_width 8
dram_wq_size 64
dram_rq_size 64
tRP 15
tRCD 15
tCAS 12.5
dram_dbus_turn_around_time 30
dram_write_high_wm 56
dram_write_low_wm 48
min_dram_writes_per_switch 16
dram_mtps 2400
dram_dbus_return_time 13

scooby_alpha 0.0065088
scooby_gamma 0.556301
scooby_epsilon 0.00182284
scooby_state_num_bits 10
scooby_max_states 1024
scooby_seed 200
scooby_policy EGreedy
scooby_learning_type SARSA
scooby_actions 1,3,4,5,10,11,12,22,23,30,32,-1,-3,-6,0,
scooby_max_actions 15
scooby_pt_size 256
scooby_st_size 64
scooby_max_pcs 5
scooby_max_offsets 5
scooby_max_deltas 5
scooby_reward_none -4
scooby_reward_incorrect -8
scooby_reward_correct_untimely 12
scooby_reward_correct_timely 20
scooby_brain_zero_init 0
scooby_enable_reward_all 0
scooby_enable_track_multiple 0
scooby_enable_reward_out_of_bounds 1
scooby_reward_out_of_bounds -12
scooby_state_type 1
scooby_state_hash_type 11
scooby_access_debug 0
scooby_print_access_debug 0
scooby_print_access_debug_pc deadbeef
scooby_print_access_debug_pc_count 0
scooby_print_trace 0
scooby_enable_state_action_stats 1
scooby_enable_reward_tracker_hit 0
scooby_reward_tracker_hit -2
scooby_enable_featurewise_engine 1
scooby_pref_degree 1
scooby_enable_dyn_degree 1
scooby_max_to_avg_q_thresholds 0.5,1,2,
scooby_dyn_degrees 1,2,4,4,
scooby_multi_deg_select_type 2
scooby_last_pref_offset_conf_thresholds 1,3,8,
scooby_dyn_degrees_type2 1,2,4,6,
scooby_action_tracker_size 2
scooby_high_bw_thresh 4
scooby_enable_hbw_reward 1
scooby_reward_hbw_correct_timely 20
scooby_reward_hbw_correct_untimely 12
scooby_reward_hbw_incorrect -14
scooby_reward_hbw_none -2
scooby_reward_hbw_out_of_bounds -12
scooby_reward_hbw_tracker_hit -2
scooby_last_pref_offset_conf_thresholds_hbw 1,3,8,
scooby_dyn_degrees_type2_hbw 1,2,4,6,

le_enable_trace 0
le_trace_interval 0
le_trace_file_name 
le_trace_state 0
le_enable_score_plot 0
le_plot_file_name 
le_plot_actions 
le_enable_action_trace 0
le_action_trace_interval 0
le_action_trace_name 
le_enable_action_plot 0

le_featurewise_active_features PC, PC_Delta
le_featurewise_num_tilings 3,3,
le_featurewise_num_tiles 128,128,
le_featurewise_hash_types 2,2,
le_featurewise_enable_tiling_offset 1,1,
le_featurewise_max_q_thresh 0.5
le_featurewise_enable_action_fallback 1
le_featurewise_feature_weights 1,1,
le_featurewise_enable_dynamic_weight 0
le_featurewise_weight_gradient 0.001
le_featurewise_disable_adjust_weight_all_features_align 1
le_featurewise_selective_update 0
le_featurewise_pooling_type 2
le_featurewise_enable_dyn_action_fallback 1
le_featurewise_bw_acc_check_level 1
le_featurewise_acc_thresh 2
le_featurewise_enable_trace 0
le_featurewise_trace_feature_type 0
le_featurewise_trace_feature 
le_featurewise_trace_interval 0
le_featurewise_trace_record_count 0
le_featurewise_trace_file_name 
le_featurewise_enable_score_plot 0
le_featurewise_plot_actions 
le_featurewise_plot_file_name 


Heartbeat CPU  0 instructions:    1000001 cycles:     430488 heartbeat IPC: 2.32295 cumulative IPC: 2.32295 (Simulation time: 0 hr 0 min 5 sec) 
Heartbeat CPU  0 instructions:    2000001 cycles:     860656 heartbeat IPC: 2.32467 cumulative IPC: 2.32381 (Simulation time: 0 hr 0 min 10 sec) 
Heartbeat CPU  0 instructions:    3000002 cycles:    1290873 heartbeat IPC: 2.32441 cumulative IPC: 2.32401 (Simulation time: 0 hr 0 min 15 sec) 
Heartbeat CPU  0 instructions:    4000000 cycles:    1721039 heartbeat IPC: 2.32468 cumulative IPC: 2.32418 (Simulation time: 0 hr 0 min 20 sec) 
Heartbeat CPU  0 instructions:    5000000 cycles:    2151118 heartbeat IPC: 2.32515 cumulative IPC: 2.32437 (Simulation time: 0 hr 0 min 25 sec) 
Heartbeat CPU  0 instructions:    6000001 cycles:    2581202 heartbeat IPC: 2.32513 cumulative IPC: 2.32450 (Simulation time: 0 hr 0 min 30 sec) 
Heartbeat CPU  0 instructions:    7000001 cycles:    3011253 heartbeat IPC: 2.32531 cumulative IPC: 2.32461 (Simulation time: 0 hr 0 min 35 sec) 
Heartbeat CPU  0 instructions:    8000000 cycles:    3441389 heartbeat IPC: 2.32484 cumulative IPC: 2.32464 (Simulation time: 0 hr 0 min 40 sec) 
Heartbeat CPU  0 instructions:    9000003 cycles:    3871527 heartbeat IPC: 2.32484 cumulative IPC: 2.32466 (Simulation time: 0 hr 0 min 45 sec) 
Heartbeat CPU  0 instructions:   10000000 cycles:    4301705 heartbeat IPC: 2.32461 cumulative IPC: 2.32466 (Simulation time: 0 hr 0 min 50 sec) 
Heartbeat CPU  0 instructions:   11000000 cycles:    4731864 heartbeat IPC: 2.32472 cumulative IPC: 2.32467 (Simulation time: 0 hr 0 min 55 sec) 
Heartbeat CPU  0 instructions:   12000000 cycles:    5162003 heartbeat IPC: 2.32483 cumulative IPC: 2.32468 (Simulation time: 0 hr 1 min 0 sec) 
Heartbeat CPU  0 instructions:   13000000 cycles:    5592216 heartbeat IPC: 2.32443 cumulative IPC: 2.32466 (Simulation time: 0 hr 1 min 5 sec) 
Heartbeat CPU  0 instructions:   14000002 cycles:    6022374 heartbeat IPC: 2.32473 cumulative IPC: 2.32467 (Simulation time: 0 hr 1 min 10 sec) 
Heartbeat CPU  0 instructions:   15000003 cycles:    6452520 heartbeat IPC: 2.32479 cumulative IPC: 2.32467 (Simulation time: 0 hr 1 min 15 sec) 
Heartbeat CPU  0 instructions:   16000000 cycles:    6882647 heartbeat IPC: 2.32489 cumulative IPC: 2.32469 (Simulation time: 0 hr 1 min 20 sec) 
Heartbeat CPU  0 instructions:   17000003 cycles:    7312806 heartbeat IPC: 2.32473 cumulative IPC: 2.32469 (Simulation time: 0 hr 1 min 25 sec) 
Heartbeat CPU  0 instructions:   18000003 cycles:    7742978 heartbeat IPC: 2.32465 cumulative IPC: 2.32469 (Simulation time: 0 hr 1 min 30 sec) 
Heartbeat CPU  0 instructions:   19000003 cycles:    8173155 heartbeat IPC: 2.32462 cumulative IPC: 2.32468 (Simulation time: 0 hr 1 min 35 sec) 
Heartbeat CPU  0 instructions:   20000000 cycles:    8603318 heartbeat IPC: 2.32469 cumulative IPC: 2.32468 (Simulation time: 0 hr 1 min 40 sec) 
Heartbeat CPU  0 instructions:   21000002 cycles:    9033529 heartbeat IPC: 2.32445 cumulative IPC: 2.32467 (Simulation time: 0 hr 1 min 45 sec) 
Heartbeat CPU  0 instructions:   22000002 cycles:    9463773 heartbeat IPC: 2.32426 cumulative IPC: 2.32465 (Simulation time: 0 hr 1 min 50 sec) 
Heartbeat CPU  0 instructions:   23000003 cycles:    9893890 heartbeat IPC: 2.32495 cumulative IPC: 2.32467 (Simulation time: 0 hr 1 min 55 sec) 
Heartbeat CPU  0 instructions:   24000000 cycles:   10324056 heartbeat IPC: 2.32468 cumulative IPC: 2.32467 (Simulation time: 0 hr 2 min 0 sec) 
Heartbeat CPU  0 instructions:   25000002 cycles:   10754137 heartbeat IPC: 2.32515 cumulative IPC: 2.32469 (Simulation time: 0 hr 2 min 5 sec) 
Heartbeat CPU  0 instructions:   26000001 cycles:   11184187 heartbeat IPC: 2.32531 cumulative IPC: 2.32471 (Simulation time: 0 hr 2 min 10 sec) 
Heartbeat CPU  0 instructions:   27000003 cycles:   11614363 heartbeat IPC: 2.32463 cumulative IPC: 2.32471 (Simulation time: 0 hr 2 min 15 sec) 
Heartbeat CPU  0 instructions:   28000000 cycles:   12044475 heartbeat IPC: 2.32497 cumulative IPC: 2.32472 (Simulation time: 0 hr 2 min 20 sec) 
Heartbeat CPU  0 instructions:   29000000 cycles:   12474741 heartbeat IPC: 2.32414 cumulative IPC: 2.32470 (Simulation time: 0 hr 2 min 25 sec) 
Heartbeat CPU  0 instructions:   30000002 cycles:   12904963 heartbeat IPC: 2.32439 cumulative IPC: 2.32469 (Simulation time: 0 hr 2 min 30 sec) 
Heartbeat CPU  0 instructions:   31000002 cycles:   13335150 heartbeat IPC: 2.32457 cumulative IPC: 2.32468 (Simulation time: 0 hr 2 min 35 sec) 
Heartbeat CPU  0 instructions:   32000000 cycles:   13765370 heartbeat IPC: 2.32439 cumulative IPC: 2.32467 (Simulation time: 0 hr 2 min 40 sec) 
Heartbeat CPU  0 instructions:   33000001 cycles:   14195609 heartbeat IPC: 2.32429 cumulative IPC: 2.32466 (Simulation time: 0 hr 2 min 45 sec) 
Heartbeat CPU  0 instructions:   34000001 cycles:   14625752 heartbeat IPC: 2.32481 cumulative IPC: 2.32467 (Simulation time: 0 hr 2 min 50 sec) 
Heartbeat CPU  0 instructions:   35000000 cycles:   15055738 heartbeat IPC: 2.32565 cumulative IPC: 2.32470 (Simulation time: 0 hr 2 min 55 sec) 
Heartbeat CPU  0 instructions:   36000000 cycles:   15485847 heartbeat IPC: 2.32499 cumulative IPC: 2.32470 (Simulation time: 0 hr 3 min 0 sec) 
Heartbeat CPU  0 instructions:   37000001 cycles:   15916042 heartbeat IPC: 2.32453 cumulative IPC: 2.32470 (Simulation time: 0 hr 3 min 5 sec) 
Heartbeat CPU  0 instructions:   38000001 cycles:   16346052 heartbeat IPC: 2.32553 cumulative IPC: 2.32472 (Simulation time: 0 hr 3 min 10 sec) 
Heartbeat CPU  0 instructions:   39000000 cycles:   16776226 heartbeat IPC: 2.32464 cumulative IPC: 2.32472 (Simulation time: 0 hr 3 min 15 sec) 
Heartbeat CPU  0 instructions:   40000000 cycles:   17206384 heartbeat IPC: 2.32473 cumulative IPC: 2.32472 (Simulation time: 0 hr 3 min 20 sec) 

Warmup complete CPU  0 instructions:   40000002 cycles:   17206385 (Simulation time: 0 hr 3 min 20 sec) 

Heartbeat CPU  0 instructions:   41000001 cycles:   18042690 heartbeat IPC: 1.19574 cumulative IPC: 1.19573 (Simulation time: 0 hr 3 min 25 sec) 
Heartbeat CPU  0 instructions:   42000002 cycles:   18876209 heartbeat IPC: 1.19973 cumulative IPC: 1.19773 (Simulation time: 0 hr 3 min 31 sec) 
Heartbeat CPU  0 instructions:   43000000 cycles:   19713661 heartbeat IPC: 1.19410 cumulative IPC: 1.19652 (Simulation time: 0 hr 3 min 36 sec) 
Heartbeat CPU  0 instructions:   44000000 cycles:   20547873 heartbeat IPC: 1.19874 cumulative IPC: 1.19707 (Simulation time: 0 hr 3 min 42 sec) 
Heartbeat CPU  0 instructions:   45000003 cycles:   21381551 heartbeat IPC: 1.19951 cumulative IPC: 1.19756 (Simulation time: 0 hr 3 min 48 sec) 
Heartbeat CPU  0 instructions:   46000002 cycles:   22215204 heartbeat IPC: 1.19954 cumulative IPC: 1.19789 (Simulation time: 0 hr 3 min 53 sec) 
Heartbeat CPU  0 instructions:   47000001 cycles:   23053772 heartbeat IPC: 1.19251 cumulative IPC: 1.19712 (Simulation time: 0 hr 3 min 59 sec) 
Heartbeat CPU  0 instructions:   48000000 cycles:   23895313 heartbeat IPC: 1.18830 cumulative IPC: 1.19601 (Simulation time: 0 hr 4 min 4 sec) 
Heartbeat CPU  0 instructions:   49000001 cycles:   24726899 heartbeat IPC: 1.20252 cumulative IPC: 1.19673 (Simulation time: 0 hr 4 min 10 sec) 
Heartbeat CPU  0 instructions:   50000001 cycles:   25564231 heartbeat IPC: 1.19427 cumulative IPC: 1.19648 (Simulation time: 0 hr 4 min 15 sec) 
Heartbeat CPU  0 instructions:   51000002 cycles:   26398486 heartbeat IPC: 1.19868 cumulative IPC: 1.19668 (Simulation time: 0 hr 4 min 21 sec) 
Heartbeat CPU  0 instructions:   52000000 cycles:   27233368 heartbeat IPC: 1.19777 cumulative IPC: 1.19677 (Simulation time: 0 hr 4 min 26 sec) 
Heartbeat CPU  0 instructions:   53000001 cycles:   28068480 heartbeat IPC: 1.19745 cumulative IPC: 1.19682 (Simulation time: 0 hr 4 min 32 sec) 
Heartbeat CPU  0 instructions:   54000001 cycles:   28902558 heartbeat IPC: 1.19893 cumulative IPC: 1.19697 (Simulation time: 0 hr 4 min 38 sec) 
Heartbeat CPU  0 instructions:   55000000 cycles:   29731925 heartbeat IPC: 1.20574 cumulative IPC: 1.19755 (Simulation time: 0 hr 4 min 43 sec) 
Heartbeat CPU  0 instructions:   56000000 cycles:   30565508 heartbeat IPC: 1.19964 cumulative IPC: 1.19768 (Simulation time: 0 hr 4 min 49 sec) 
Heartbeat CPU  0 instructions:   57000000 cycles:   31403535 heartbeat IPC: 1.19328 cumulative IPC: 1.19742 (Simulation time: 0 hr 4 min 54 sec) 
Heartbeat CPU  0 instructions:   58000003 cycles:   32233894 heartbeat IPC: 1.20430 cumulative IPC: 1.19780 (Simulation time: 0 hr 5 min 0 sec) 
Heartbeat CPU  0 instructions:   59000002 cycles:   33067782 heartbeat IPC: 1.19920 cumulative IPC: 1.19788 (Simulation time: 0 hr 5 min 5 sec) 
Heartbeat CPU  0 instructions:   60000000 cycles:   33907026 heartbeat IPC: 1.19155 cumulative IPC: 1.19756 (Simulation time: 0 hr 5 min 11 sec) 
Heartbeat CPU  0 instructions:   61000003 cycles:   34746746 heartbeat IPC: 1.19088 cumulative IPC: 1.19724 (Simulation time: 0 hr 5 min 16 sec) 
Heartbeat CPU  0 instructions:   62000001 cycles:   35579608 heartbeat IPC: 1.20068 cumulative IPC: 1.19739 (Simulation time: 0 hr 5 min 22 sec) 
Heartbeat CPU  0 instructions:   63000001 cycles:   36412703 heartbeat IPC: 1.20034 cumulative IPC: 1.19752 (Simulation time: 0 hr 5 min 27 sec) 
Heartbeat CPU  0 instructions:   64000000 cycles:   37247501 heartbeat IPC: 1.19789 cumulative IPC: 1.19754 (Simulation time: 0 hr 5 min 33 sec) 
Heartbeat CPU  0 instructions:   65000001 cycles:   38088346 heartbeat IPC: 1.18928 cumulative IPC: 1.19721 (Simulation time: 0 hr 5 min 39 sec) 
Heartbeat CPU  0 instructions:   66000000 cycles:   38922874 heartbeat IPC: 1.19828 cumulative IPC: 1.19725 (Simulation time: 0 hr 5 min 44 sec) 
Heartbeat CPU  0 instructions:   67000000 cycles:   39757876 heartbeat IPC: 1.19760 cumulative IPC: 1.19726 (Simulation time: 0 hr 5 min 50 sec) 
Heartbeat CPU  0 instructions:   68000000 cycles:   40587716 heartbeat IPC: 1.20505 cumulative IPC: 1.19754 (Simulation time: 0 hr 5 min 55 sec) 
Heartbeat CPU  0 instructions:   69000003 cycles:   41425730 heartbeat IPC: 1.19330 cumulative IPC: 1.19739 (Simulation time: 0 hr 6 min 1 sec) 
Heartbeat CPU  0 instructions:   70000003 cycles:   42259382 heartbeat IPC: 1.19954 cumulative IPC: 1.19746 (Simulation time: 0 hr 6 min 6 sec) 
Heartbeat CPU  0 instructions:   71000002 cycles:   43089951 heartbeat IPC: 1.20399 cumulative IPC: 1.19767 (Simulation time: 0 hr 6 min 12 sec) 
Heartbeat CPU  0 instructions:   72000000 cycles:   43925128 heartbeat IPC: 1.19735 cumulative IPC: 1.19766 (Simulation time: 0 hr 6 min 18 sec) 
Heartbeat CPU  0 instructions:   73000002 cycles:   44762664 heartbeat IPC: 1.19398 cumulative IPC: 1.19755 (Simulation time: 0 hr 6 min 23 sec) 
Heartbeat CPU  0 instructions:   74000002 cycles:   45594829 heartbeat IPC: 1.20168 cumulative IPC: 1.19767 (Simulation time: 0 hr 6 min 29 sec) 
Heartbeat CPU  0 instructions:   75000001 cycles:   46437005 heartbeat IPC: 1.18740 cumulative IPC: 1.19737 (Simulation time: 0 hr 6 min 34 sec) 
Heartbeat CPU  0 instructions:   76000000 cycles:   47272697 heartbeat IPC: 1.19661 cumulative IPC: 1.19735 (Simulation time: 0 hr 6 min 40 sec) 
Heartbeat CPU  0 instructions:   77000002 cycles:   48102818 heartbeat IPC: 1.20465 cumulative IPC: 1.19755 (Simulation time: 0 hr 6 min 45 sec) 
Heartbeat CPU  0 instructions:   78000002 cycles:   48933607 heartbeat IPC: 1.20368 cumulative IPC: 1.19771 (Simulation time: 0 hr 6 min 51 sec) 
Heartbeat CPU  0 instructions:   79000000 cycles:   49772742 heartbeat IPC: 1.19170 cumulative IPC: 1.19755 (Simulation time: 0 hr 6 min 57 sec) 
Heartbeat CPU  0 instructions:   80000000 cycles:   50602258 heartbeat IPC: 1.20552 cumulative IPC: 1.19775 (Simulation time: 0 hr 7 min 2 sec) 
Heartbeat CPU  0 instructions:   81000001 cycles:   51438235 heartbeat IPC: 1.19621 cumulative IPC: 1.19771 (Simulation time: 0 hr 7 min 8 sec) 
Heartbeat CPU  0 instructions:   82000001 cycles:   52274294 heartbeat IPC: 1.19609 cumulative IPC: 1.19768 (Simulation time: 0 hr 7 min 13 sec) 
Heartbeat CPU  0 instructions:   83000003 cycles:   53108683 heartbeat IPC: 1.19848 cumulative IPC: 1.19769 (Simulation time: 0 hr 7 min 19 sec) 
Heartbeat CPU  0 instructions:   84000000 cycles:   53941065 heartbeat IPC: 1.20137 cumulative IPC: 1.19778 (Simulation time: 0 hr 7 min 24 sec) 
Heartbeat CPU  0 instructions:   85000000 cycles:   54771950 heartbeat IPC: 1.20354 cumulative IPC: 1.19791 (Simulation time: 0 hr 7 min 30 sec) 
Heartbeat CPU  0 instructions:   86000001 cycles:   55607053 heartbeat IPC: 1.19746 cumulative IPC: 1.19790 (Simulation time: 0 hr 7 min 36 sec) 
Heartbeat CPU  0 instructions:   87000002 cycles:   56441683 heartbeat IPC: 1.19814 cumulative IPC: 1.19790 (Simulation time: 0 hr 7 min 41 sec) 
Heartbeat CPU  0 instructions:   88000000 cycles:   57278340 heartbeat IPC: 1.19523 cumulative IPC: 1.19785 (Simulation time: 0 hr 7 min 47 sec) 
Heartbeat CPU  0 instructions:   89000001 cycles:   58112818 heartbeat IPC: 1.19836 cumulative IPC: 1.19786 (Simulation time: 0 hr 7 min 52 sec) 
Heartbeat CPU  0 instructions:   90000001 cycles:   58944660 heartbeat IPC: 1.20215 cumulative IPC: 1.19794 (Simulation time: 0 hr 7 min 58 sec) 
Heartbeat CPU  0 instructions:   91000002 cycles:   59784154 heartbeat IPC: 1.19119 cumulative IPC: 1.19781 (Simulation time: 0 hr 8 min 3 sec) 
Heartbeat CPU  0 instructions:   92000000 cycles:   60620056 heartbeat IPC: 1.19631 cumulative IPC: 1.19778 (Simulation time: 0 hr 8 min 9 sec) 
Heartbeat CPU  0 instructions:   93000001 cycles:   61454378 heartbeat IPC: 1.19858 cumulative IPC: 1.19779 (Simulation time: 0 hr 8 min 15 sec) 
Heartbeat CPU  0 instructions:   94000003 cycles:   62291057 heartbeat IPC: 1.19520 cumulative IPC: 1.19775 (Simulation time: 0 hr 8 min 20 sec) 
Heartbeat CPU  0 instructions:   95000000 cycles:   63131970 heartbeat IPC: 1.18918 cumulative IPC: 1.19759 (Simulation time: 0 hr 8 min 26 sec) 
Heartbeat CPU  0 instructions:   96000000 cycles:   63968244 heartbeat IPC: 1.19578 cumulative IPC: 1.19756 (Simulation time: 0 hr 8 min 31 sec) 
Heartbeat CPU  0 instructions:   97000000 cycles:   64800709 heartbeat IPC: 1.20125 cumulative IPC: 1.19762 (Simulation time: 0 hr 8 min 37 sec) 
Heartbeat CPU  0 instructions:   98000000 cycles:   65638565 heartbeat IPC: 1.19352 cumulative IPC: 1.19755 (Simulation time: 0 hr 8 min 42 sec) 
Heartbeat CPU  0 instructions:   99000000 cycles:   66468869 heartbeat IPC: 1.20438 cumulative IPC: 1.19767 (Simulation time: 0 hr 8 min 48 sec) 
Heartbeat CPU  0 instructions:  100000000 cycles:   67314766 heartbeat IPC: 1.18218 cumulative IPC: 1.19740 (Simulation time: 0 hr 8 min 53 sec) 
Heartbeat CPU  0 instructions:  101000003 cycles:   68153017 heartbeat IPC: 1.19296 cumulative IPC: 1.19733 (Simulation time: 0 hr 8 min 59 sec) 
Heartbeat CPU  0 instructions:  102000003 cycles:   68984593 heartbeat IPC: 1.20254 cumulative IPC: 1.19741 (Simulation time: 0 hr 9 min 5 sec) 
Heartbeat CPU  0 instructions:  103000001 cycles:   69821888 heartbeat IPC: 1.19432 cumulative IPC: 1.19737 (Simulation time: 0 hr 9 min 10 sec) 
Heartbeat CPU  0 instructions:  104000000 cycles:   70657448 heartbeat IPC: 1.19680 cumulative IPC: 1.19736 (Simulation time: 0 hr 9 min 16 sec) 
Heartbeat CPU  0 instructions:  105000002 cycles:   71500319 heartbeat IPC: 1.18642 cumulative IPC: 1.19719 (Simulation time: 0 hr 9 min 21 sec) 
Heartbeat CPU  0 instructions:  106000000 cycles:   72342899 heartbeat IPC: 1.18683 cumulative IPC: 1.19703 (Simulation time: 0 hr 9 min 27 sec) 
Heartbeat CPU  0 instructions:  107000000 cycles:   73174067 heartbeat IPC: 1.20313 cumulative IPC: 1.19712 (Simulation time: 0 hr 9 min 32 sec) 
Heartbeat CPU  0 instructions:  108000000 cycles:   74005030 heartbeat IPC: 1.20342 cumulative IPC: 1.19721 (Simulation time: 0 hr 9 min 38 sec) 
Heartbeat CPU  0 instructions:  109000000 cycles:   74836653 heartbeat IPC: 1.20247 cumulative IPC: 1.19729 (Simulation time: 0 hr 9 min 43 sec) 
Heartbeat CPU  0 instructions:  110000000 cycles:   75675525 heartbeat IPC: 1.19208 cumulative IPC: 1.19721 (Simulation time: 0 hr 9 min 49 sec) 
Heartbeat CPU  0 instructions:  111000003 cycles:   76507393 heartbeat IPC: 1.20212 cumulative IPC: 1.19728 (Simulation time: 0 hr 9 min 54 sec) 
Heartbeat CPU  0 instructions:  112000000 cycles:   77339832 heartbeat IPC: 1.20129 cumulative IPC: 1.19734 (Simulation time: 0 hr 10 min 0 sec) 
Heartbeat CPU  0 instructions:  113000002 cycles:   78180627 heartbeat IPC: 1.18935 cumulative IPC: 1.19723 (Simulation time: 0 hr 10 min 5 sec) 
Heartbeat CPU  0 instructions:  114000002 cycles:   79019823 heartbeat IPC: 1.19162 cumulative IPC: 1.19715 (Simulation time: 0 hr 10 min 10 sec) 
Heartbeat CPU  0 instructions:  115000003 cycles:   79850046 heartbeat IPC: 1.20450 cumulative IPC: 1.19725 (Simulation time: 0 hr 10 min 16 sec) 
Heartbeat CPU  0 instructions:  116000000 cycles:   80684494 heartbeat IPC: 1.19839 cumulative IPC: 1.19726 (Simulation time: 0 hr 10 min 21 sec) 
Heartbeat CPU  0 instructions:  117000001 cycles:   81515648 heartbeat IPC: 1.20315 cumulative IPC: 1.19734 (Simulation time: 0 hr 10 min 27 sec) 
Heartbeat CPU  0 instructions:  118000002 cycles:   82352624 heartbeat IPC: 1.19478 cumulative IPC: 1.19731 (Simulation time: 0 hr 10 min 32 sec) 
Heartbeat CPU  0 instructions:  119000002 cycles:   83193816 heartbeat IPC: 1.18879 cumulative IPC: 1.19720 (Simulation time: 0 hr 10 min 38 sec) 
Heartbeat CPU  0 instructions:  120000000 cycles:   84031584 heartbeat IPC: 1.19365 cumulative IPC: 1.19715 (Simulation time: 0 hr 10 min 43 sec) 
Heartbeat CPU  0 instructions:  121000001 cycles:   84863351 heartbeat IPC: 1.20226 cumulative IPC: 1.19722 (Simulation time: 0 hr 10 min 48 sec) 
Heartbeat CPU  0 instructions:  122000001 cycles:   85695276 heartbeat IPC: 1.20203 cumulative IPC: 1.19727 (Simulation time: 0 hr 10 min 54 sec) 
Heartbeat CPU  0 instructions:  123000003 cycles:   86532342 heartbeat IPC: 1.19465 cumulative IPC: 1.19724 (Simulation time: 0 hr 10 min 59 sec) 
Heartbeat CPU  0 instructions:  124000000 cycles:   87366463 heartbeat IPC: 1.19886 cumulative IPC: 1.19726 (Simulation time: 0 hr 11 min 4 sec) 
Heartbeat CPU  0 instructions:  125000003 cycles:   88201561 heartbeat IPC: 1.19747 cumulative IPC: 1.19726 (Simulation time: 0 hr 11 min 8 sec) 
Heartbeat CPU  0 instructions:  126000001 cycles:   89035596 heartbeat IPC: 1.19899 cumulative IPC: 1.19728 (Simulation time: 0 hr 11 min 13 sec) 
Heartbeat CPU  0 instructions:  127000002 cycles:   89866698 heartbeat IPC: 1.20322 cumulative IPC: 1.19735 (Simulation time: 0 hr 11 min 18 sec) 
Heartbeat CPU  0 instructions:  128000000 cycles:   90697114 heartbeat IPC: 1.20421 cumulative IPC: 1.19743 (Simulation time: 0 hr 11 min 24 sec) 
Heartbeat CPU  0 instructions:  129000001 cycles:   91530207 heartbeat IPC: 1.20035 cumulative IPC: 1.19746 (Simulation time: 0 hr 11 min 29 sec) 
Heartbeat CPU  0 instructions:  130000002 cycles:   92365172 heartbeat IPC: 1.19766 cumulative IPC: 1.19746 (Simulation time: 0 hr 11 min 34 sec) 
Heartbeat CPU  0 instructions:  131000001 cycles:   93199454 heartbeat IPC: 1.19863 cumulative IPC: 1.19748 (Simulation time: 0 hr 11 min 40 sec) 
Heartbeat CPU  0 instructions:  132000000 cycles:   94040228 heartbeat IPC: 1.18938 cumulative IPC: 1.19739 (Simulation time: 0 hr 11 min 45 sec) 
Heartbeat CPU  0 instructions:  133000000 cycles:   94882356 heartbeat IPC: 1.18747 cumulative IPC: 1.19728 (Simulation time: 0 hr 11 min 50 sec) 
Heartbeat CPU  0 instructions:  134000001 cycles:   95718762 heartbeat IPC: 1.19559 cumulative IPC: 1.19726 (Simulation time: 0 hr 11 min 56 sec) 
Heartbeat CPU  0 instructions:  135000001 cycles:   96551028 heartbeat IPC: 1.20154 cumulative IPC: 1.19731 (Simulation time: 0 hr 12 min 1 sec) 
Heartbeat CPU  0 instructions:  136000000 cycles:   97382107 heartbeat IPC: 1.20325 cumulative IPC: 1.19737 (Simulation time: 0 hr 12 min 6 sec) 
Heartbeat CPU  0 instructions:  137000000 cycles:   98212312 heartbeat IPC: 1.20452 cumulative IPC: 1.19744 (Simulation time: 0 hr 12 min 11 sec) 
Heartbeat CPU  0 instructions:  138000000 cycles:   99049656 heartbeat IPC: 1.19425 cumulative IPC: 1.19741 (Simulation time: 0 hr 12 min 16 sec) 
Heartbeat CPU  0 instructions:  139000000 cycles:   99894431 heartbeat IPC: 1.18375 cumulative IPC: 1.19727 (Simulation time: 0 hr 12 min 22 sec) 
Heartbeat CPU  0 instructions:  140000000 cycles:  100733806 heartbeat IPC: 1.19136 cumulative IPC: 1.19721 (Simulation time: 0 hr 12 min 27 sec) 
Finished CPU 0 instructions: 100000000 cycles: 83527431 cumulative IPC: 1.19721 (Simulation time: 0 hr 12 min 27 sec) 

ChampSim completed all CPUs

[ROI Statistics]
Core_0_instructions 100000000
Core_0_cycles 83527431
Core_0_IPC 1.19721

Core_0_branch_prediction_accuracy 99.97505
Core_0_branch_MPKI 0.00438
Core_0_average_ROB_occupancy_at_mispredict 254.21461

Core_0_L1D_total_access 20586406
Core_0_L1D_total_hit 19263033
Core_0_L1D_total_miss 1323373
Core_0_L1D_loads 13569307
Core_0_L1D_load_hit 12247467
Core_0_L1D_load_miss 1321840
Core_0_L1D_RFOs 7017099
Core_0_L1D_RFO_hit 7015566
Core_0_L1D_RFO_miss 1533
Core_0_L1D_prefetches 0
Core_0_L1D_prefetch_hit 0
Core_0_L1D_prefetch_miss 0
Core_0_L1D_writebacks 0
Core_0_L1D_writeback_hit 0
Core_0_L1D_writeback_miss 0
Core_0_L1D_prefetch_requested 0
Core_0_L1D_prefetch_dropped 0
Core_0_L1D_prefetch_issued 0
Core_0_L1D_prefetch_filled 0
Core_0_L1D_prefetch_useful 0
Core_0_L1D_prefetch_useless 0
Core_0_L1D_prefetch_late 0
Core_0_L1D_average_miss_latency 22.55998

Core_0_L1D_rq_access 35083008
Core_0_L1D_rq_forward 0
Core_0_L1D_rq_merged 21049202
Core_0_L1D_rq_to_cache 14033806
Core_0_L1D_rq_full 0

Core_0_L1D_wq_access 7020548
Core_0_L1D_wq_forward 0
Core_0_L1D_wq_merged 0
Core_0_L1D_wq_to_cache 7020548
Core_0_L1D_wq_full 0

Core_0_L1D_pq_access 0
Core_0_L1D_pq_forward 0
Core_0_L1D_pq_merged 0
Core_0_L1D_pq_to_cache 0
Core_0_L1D_pq_full 0

Core_0_L1D_acc_epochs 97046
Core_0_L1D_acc_level_0 97046
Core_0_L1D_acc_level_1 0
Core_0_L1D_acc_level_2 0
Core_0_L1D_acc_level_3 0
Core_0_L1D_acc_level_4 0
Core_0_L1D_acc_level_5 0
Core_0_L1D_acc_level_6 0
Core_0_L1D_acc_level_7 0
Core_0_L1D_acc_level_8 0
Core_0_L1D_acc_level_9 0

Core_0_L1I_total_access 20477711
Core_0_L1I_total_hit 20477711
Core_0_L1I_total_miss 0
Core_0_L1I_loads 20477711
Core_0_L1I_load_hit 20477711
Core_0_L1I_load_miss 0
Core_0_L1I_RFOs 0
Core_0_L1I_RFO_hit 0
Core_0_L1I_RFO_miss 0
Core_0_L1I_prefetches 0
Core_0_L1I_prefetch_hit 0
Core_0_L1I_prefetch_miss 0
Core_0_L1I_writebacks 0
Core_0_L1I_writeback_hit 0
Core_0_L1I_writeback_miss 0
Core_0_L1I_prefetch_requested 0
Core_0_L1I_prefetch_dropped 0
Core_0_L1I_prefetch_issued 0
Core_0_L1I_prefetch_filled 0
Core_0_L1I_prefetch_useful 0
Core_0_L1I_prefetch_useless 0
Core_0_L1I_prefetch_late 0
Core_0_L1I_average_miss_latency -nan

Core_0_L1I_rq_access 100000003
Core_0_L1I_rq_forward 0
Core_0_L1I_rq_merged 79522292
Core_0_L1I_rq_to_cache 20477711
Core_0_L1I_rq_full 0

Core_0_L1I_wq_access 0
Core_0_L1I_wq_forward 0
Core_0_L1I_wq_merged 0
Core_0_L1I_wq_to_cache 0
Core_0_L1I_wq_full 0

Core_0_L1I_pq_access 0
Core_0_L1I_pq_forward 0
Core_0_L1I_pq_merged 0
Core_0_L1I_pq_to_cache 0
Core_0_L1I_pq_full 0

Core_0_L1I_acc_epochs 97046
Core_0_L1I_acc_level_0 97046
Core_0_L1I_acc_level_1 0
Core_0_L1I_acc_level_2 0
Core_0_L1I_acc_level_3 0
Core_0_L1I_acc_level_4 0
Core_0_L1I_acc_level_5 0
Core_0_L1I_acc_level_6 0
Core_0_L1I_acc_level_7 0
Core_0_L1I_acc_level_8 0
Core_0_L1I_acc_level_9 0

Core_0_L2C_total_access 7154624
Core_0_L2C_total_hit 5829469
Core_0_L2C_total_miss 1325155
Core_0_L2C_loads 1321840
Core_0_L2C_load_hit 1226495
Core_0_L2C_load_miss 95345
Core_0_L2C_RFOs 1533
Core_0_L2C_RFO_hit 219
Core_0_L2C_RFO_miss 1314
Core_0_L2C_prefetches 4952757
Core_0_L2C_prefetch_hit 3724261
Core_0_L2C_prefetch_miss 1228496
Core_0_L2C_writebacks 878494
Core_0_L2C_writeback_hit 878494
Core_0_L2C_writeback_miss 0
Core_0_L2C_prefetch_requested 9471573
Core_0_L2C_prefetch_dropped 0
Core_0_L2C_prefetch_issued 9471573
Core_0_L2C_prefetch_filled 1747947
Core_0_L2C_prefetch_useful 1741621
Core_0_L2C_prefetch_useless 6293
Core_0_L2C_prefetch_late 69497
Core_0_L2C_average_miss_latency 156.69138

Core_0_L2C_rq_access 1323373
Core_0_L2C_rq_forward 0
Core_0_L2C_rq_merged 0
Core_0_L2C_rq_to_cache 1323373
Core_0_L2C_rq_full 0

Core_0_L2C_wq_access 878494
Core_0_L2C_wq_forward 0
Core_0_L2C_wq_merged 0
Core_0_L2C_wq_to_cache 878494
Core_0_L2C_wq_full 0

Core_0_L2C_pq_access 9471573
Core_0_L2C_pq_forward 0
Core_0_L2C_pq_merged 5595
Core_0_L2C_pq_to_cache 9465978
Core_0_L2C_pq_full 0

Core_0_L2C_acc_epochs 97046
Core_0_L2C_acc_level_0 1
Core_0_L2C_acc_level_1 0
Core_0_L2C_acc_level_2 0
Core_0_L2C_acc_level_3 1
Core_0_L2C_acc_level_4 7
Core_0_L2C_acc_level_5 38
Core_0_L2C_acc_level_6 216
Core_0_L2C_acc_level_7 330
Core_0_L2C_acc_level_8 3317
Core_0_L2C_acc_level_9 93136

Core_0_LLC_total_access 2203035
Core_0_LLC_total_hit 450288
Core_0_LLC_total_miss 1752747
Core_0_LLC_loads 25855
Core_0_LLC_load_hit 11642
Core_0_LLC_load_miss 14213
Core_0_LLC_RFOs 1314
Core_0_LLC_RFO_hit 1314
Core_0_LLC_RFO_miss 0
Core_0_LLC_prefetches 1297986
Core_0_LLC_prefetch_hit 434726
Core_0_LLC_prefetch_miss 863260
Core_0_LLC_writebacks 877880
Core_0_LLC_writeback_hit 2606
Core_0_LLC_writeback_miss 875274
Core_0_LLC_prefetch_requested 0
Core_0_LLC_prefetch_dropped 0
Core_0_LLC_prefetch_issued 0
Core_0_LLC_prefetch_filled 1210808
Core_0_LLC_prefetch_useful 442
Core_0_LLC_prefetch_useless 1207743
Core_0_LLC_prefetch_late 0
Core_0_LLC_average_miss_latency 102.77680

Core_0_LLC_rq_access 27169
Core_0_LLC_rq_forward 0
Core_0_LLC_rq_merged 0
Core_0_LLC_rq_to_cache 27169
Core_0_LLC_rq_full 0

Core_0_LLC_wq_access 877881
Core_0_LLC_wq_forward 0
Core_0_LLC_wq_merged 0
Core_0_LLC_wq_to_cache 877881
Core_0_LLC_wq_full 0

Core_0_LLC_pq_access 1817450
Core_0_LLC_pq_forward 0
Core_0_LLC_pq_merged 0
Core_0_LLC_pq_to_cache 1817450
Core_0_LLC_pq_full 0

Core_0_LLC_acc_epochs 98373
Core_0_LLC_acc_level_0 98249
Core_0_LLC_acc_level_1 104
Core_0_LLC_acc_level_2 12
Core_0_LLC_acc_level_3 5
Core_0_LLC_acc_level_4 0
Core_0_LLC_acc_level_5 3
Core_0_LLC_acc_level_6 0
Core_0_LLC_acc_level_7 0
Core_0_LLC_acc_level_8 0
Core_0_LLC_acc_level_9 0

Core_0_major_page_fault 0
Core_0_minor_page_fault 19264

scooby_st_lookup 1850629
scooby_st_hit 1818724
scooby_st_evict 31841
scooby_st_insert 31905
scooby_st_streaming 0

scooby_predict_called 1850629
scooby_predict_out_of_bounds 29410
scooby_predict_action_1 1815348
scooby_predict_issue_action_1 1813601
scooby_predict_hit_action_1 1747
scooby_predict_out_of_bounds_action_1 28669
scooby_predict_action_3 646
scooby_predict_issue_action_3 340
scooby_predict_hit_action_3 306
scooby_predict_out_of_bounds_action_3 7
scooby_predict_action_4 652
scooby_predict_issue_action_4 346
scooby_predict_hit_action_4 306
scooby_predict_out_of_bounds_action_4 14
scooby_predict_action_5 282
scooby_predict_issue_action_5 282
scooby_predict_hit_action_5 0
scooby_predict_out_of_bounds_action_5 18
scooby_predict_action_10 577
scooby_predict_issue_action_10 577
scooby_predict_hit_action_10 0
scooby_predict_out_of_bounds_action_10 56
scooby_predict_action_11 229
scooby_predict_issue_action_11 229
scooby_predict_hit_action_11 0
scooby_predict_out_of_bounds_action_11 64
scooby_predict_action_12 491
scooby_predict_issue_action_12 232
scooby_predict_hit_action_12 259
scooby_predict_out_of_bounds_action_12 61
scooby_predict_action_22 193
scooby_predict_issue_action_22 193
scooby_predict_hit_action_22 0
scooby_predict_out_of_bounds_action_22 113
scooby_predict_action_23 199
scooby_predict_issue_action_23 199
scooby_predict_hit_action_23 0
scooby_predict_out_of_bounds_action_23 101
scooby_predict_action_30 157
scooby_predict_issue_action_30 157
scooby_predict_hit_action_30 0
scooby_predict_out_of_bounds_action_30 133
scooby_predict_action_32 132
scooby_predict_issue_action_32 132
scooby_predict_hit_action_32 0
scooby_predict_out_of_bounds_action_32 129
scooby_predict_action_-1 595
scooby_predict_issue_action_-1 375
scooby_predict_hit_action_-1 220
scooby_predict_out_of_bounds_action_-1 6
scooby_predict_action_-3 800
scooby_predict_issue_action_-3 589
scooby_predict_hit_action_-3 211
scooby_predict_out_of_bounds_action_-3 13
scooby_predict_action_-6 266
scooby_predict_issue_action_-6 71
scooby_predict_hit_action_-6 195
scooby_predict_out_of_bounds_action_-6 26
scooby_predict_action_0 652
scooby_predict_issue_action_0 0
scooby_predict_hit_action_0 0
scooby_predict_out_of_bounds_action_0 0
scooby_predict_multi_deg_called 1722130
scooby_predict_predicted 9471573
scooby_predict_multi_deg 7654250
scooby_predict_multi_deg_2 1693514
scooby_predict_multi_deg_3 1605632
scooby_predict_multi_deg_4 1577013
scooby_predict_multi_deg_5 1403343
scooby_predict_multi_deg_6 1374748
scooby_predict_multi_deg_7 0
scooby_predict_multi_deg_8 0
scooby_predict_multi_deg_9 0
scooby_predict_multi_deg_10 0
scooby_predict_multi_deg_11 0
scooby_predict_multi_deg_12 0
scooby_predict_multi_deg_13 0
scooby_predict_multi_deg_14 0
scooby_predict_multi_deg_15 0
scooby_predict_multi_deg_16 0

scooby_selected_deg_1 95193
scooby_selected_deg_2 59262
scooby_selected_deg_3 0
scooby_selected_deg_4 145091
scooby_selected_deg_5 0
scooby_selected_deg_6 1517777
scooby_selected_deg_7 0
scooby_selected_deg_8 0
scooby_selected_deg_9 0
scooby_selected_deg_10 0
scooby_selected_deg_11 0
scooby_selected_deg_12 0
scooby_selected_deg_13 0
scooby_selected_deg_14 0
scooby_selected_deg_15 0
scooby_selected_deg_16 0

scooby_state_405cb2|1|1 6867,1,2,0,2,0,0,2,0,0,0,0,2,0,1,6877,
scooby_state_405df2|1|1 6841,0,1,3,0,1,1,0,1,0,2,0,1,0,2,6853,
scooby_state_405cb2|16|1 6701,1,1,1,0,0,0,0,1,1,1,3,1,1,0,6712,
scooby_state_405cb2|27|1 6687,0,1,3,0,1,0,1,0,0,1,0,1,0,1,6696,
scooby_state_405df2|12|1 6667,2,2,0,0,0,0,1,2,1,1,0,1,1,2,6680,
scooby_state_405cb2|47|1 6665,0,2,0,1,0,3,0,1,1,0,1,3,1,1,6679,
scooby_state_405cb2|5|1 6673,0,1,0,1,1,0,1,0,0,0,0,0,1,0,6678,
scooby_state_405df2|63|1 6654,1,0,0,3,1,1,0,2,0,1,0,0,1,1,6665,
scooby_state_405df2|2|1 6654,0,1,0,1,1,1,1,0,0,0,1,1,0,1,6662,
scooby_state_405cb2|7|1 6650,0,1,0,0,0,1,2,1,0,2,1,1,0,0,6659,
scooby_state_405df2|23|1 6648,0,0,0,0,0,1,1,4,1,0,0,0,2,0,6657,
scooby_state_405df2|32|1 6649,0,0,1,0,1,0,0,0,0,0,1,0,0,1,6653,
scooby_state_405df2|10|1 6640,0,2,1,0,1,1,0,0,2,1,1,1,1,0,6651,
scooby_state_405cb2|56|1 6642,1,0,0,0,0,1,3,0,0,1,0,0,0,2,6650,
scooby_state_405cb2|38|1 6640,0,0,0,1,1,4,0,0,1,1,0,0,0,1,6649,
scooby_state_405df2|34|1 6637,1,1,0,2,0,1,0,0,0,0,3,0,0,1,6646,
scooby_state_405cb2|14|1 6632,3,1,0,0,0,1,0,0,1,1,0,2,1,3,6645,
scooby_state_405cb2|58|1 6638,1,0,1,1,0,0,1,0,0,0,0,0,1,1,6644,
scooby_state_405df2|41|1 6634,2,0,0,1,0,1,0,0,1,0,1,1,1,0,6642,
scooby_state_405cb2|49|1 6624,0,1,3,0,0,3,1,0,0,3,1,0,2,1,6639,
scooby_state_405cb2|45|1 6619,2,0,2,4,1,0,1,0,2,0,1,1,1,0,6634,
scooby_state_405df2|43|1 6619,0,0,1,2,1,0,1,0,1,2,3,0,2,1,6633,
scooby_state_405df2|19|1 6616,1,0,1,0,1,2,1,2,2,1,1,1,1,0,6630,
scooby_state_405df2|30|1 6603,3,0,2,3,3,0,3,0,0,2,2,3,2,0,6626,
scooby_state_405cb2|60|1 6610,1,0,2,1,0,0,1,0,1,1,1,1,1,0,6620,
scooby_state_405cb2|3|1 6598,1,0,1,1,2,1,3,2,2,2,0,3,1,2,6619,
scooby_state_405cb2|36|1 6602,0,2,0,1,0,0,0,1,4,0,2,1,2,3,6618,
scooby_state_405df2|8|1 6605,0,1,3,0,0,1,0,0,1,2,1,2,0,1,6617,
scooby_state_405df2|54|1 6604,0,1,0,1,4,0,0,3,1,0,2,0,0,0,6616,
scooby_state_405df2|21|1 6600,1,1,1,1,1,2,0,0,1,1,1,1,1,3,6615,
scooby_state_405cb2|25|1 6593,0,3,0,2,0,2,6,0,3,2,1,1,1,1,6615,
scooby_state_405df2|52|1 6596,0,0,1,2,0,0,1,1,2,0,3,0,2,3,6611,
scooby_state_405df2|45|1 6591,0,1,2,0,3,1,1,0,2,1,2,1,2,0,6607,
scooby_state_405df2|56|1 6590,3,0,2,2,1,0,0,0,0,1,2,2,1,0,6604,
scooby_state_405cb2|34|1 6589,1,1,2,0,1,0,2,1,0,2,1,0,0,1,6601,
scooby_state_405cb2|18|1 6589,0,1,2,2,0,0,1,1,1,0,1,0,0,1,6599,
scooby_state_405df2|25|1 6589,1,0,0,0,0,1,1,2,0,0,0,1,1,0,6596,
scooby_state_405df2|14|1 6584,2,0,1,0,1,2,0,3,0,0,1,0,1,0,6595,
scooby_state_405cb2|29|1 6577,1,1,1,1,0,0,2,2,0,1,0,3,0,0,6589,
scooby_state_405cb2|23|1 6574,1,2,2,0,2,0,0,1,1,1,1,0,1,1,6587,
scooby_state_405cb2|12|1 6563,2,2,1,0,1,0,1,1,1,2,0,0,3,0,6577,
scooby_state_405df2|61|1 6568,0,0,0,1,1,0,4,0,0,0,1,0,1,1,6577,
scooby_state_405cb2|62|1 6562,2,1,0,0,2,1,0,1,0,2,0,1,3,0,6575,
scooby_state_405cb2|40|1 6555,3,2,1,2,1,0,1,2,0,1,0,3,0,0,6571,
scooby_state_405df2|17|1 6557,0,3,1,0,1,0,1,0,1,1,0,1,1,1,6568,
scooby_state_405cb2|51|1 6555,1,1,2,1,0,0,0,0,2,2,1,1,0,1,6567,
scooby_state_405cb2|9|1 6551,2,0,0,1,1,0,2,2,1,2,0,0,0,2,6564,
scooby_state_405cb2|2|1 6552,1,0,0,1,0,1,2,1,0,1,0,1,0,1,6561,
scooby_state_405df2|50|1 6549,0,0,1,0,1,0,2,1,2,1,1,1,1,0,6560,
scooby_state_405cb2|32|1 6550,0,1,0,0,2,1,1,0,0,0,2,0,0,2,6559,
scooby_state_405df2|3|1 6544,0,1,5,1,0,1,0,0,3,0,0,1,1,2,6559,
scooby_state_405cb2|21|1 6547,1,0,1,1,0,0,1,1,0,0,0,1,0,0,6553,
scooby_state_405df2|46|1 6537,0,1,1,1,1,1,1,0,0,0,0,1,0,0,6544,
scooby_state_405df2|4|1 6525,1,1,1,3,2,1,1,0,2,2,2,2,0,0,6543,
scooby_state_405df2|6|1 6534,0,0,2,1,0,0,0,0,1,1,0,0,0,1,6540,
scooby_state_405cb2|8|1 6530,0,1,0,0,0,2,0,0,0,1,1,2,0,2,6539,
scooby_state_405df2|37|1 6530,1,3,0,1,0,0,1,1,0,0,0,0,0,1,6538,
scooby_state_405df2|5|1 6520,1,0,4,2,0,2,0,2,0,1,0,2,3,0,6537,
scooby_state_405cb2|19|1 6517,2,1,4,1,0,2,1,1,1,1,0,2,0,2,6535,
scooby_state_405df2|59|1 6524,0,1,0,0,1,1,0,2,0,0,1,0,2,2,6534,
scooby_state_405df2|36|1 6524,1,1,0,1,0,1,0,0,1,0,0,0,0,3,6532,
scooby_state_405df2|58|1 6518,0,0,0,2,0,1,2,0,0,2,3,3,0,0,6531,
scooby_state_405df2|15|1 6514,0,0,2,2,0,0,0,1,3,2,1,1,0,4,6530,
scooby_state_405cb2|39|1 6511,0,2,1,0,4,0,1,1,0,1,4,0,2,1,6528,
scooby_state_405df2|35|1 6515,1,1,0,2,3,2,0,0,2,0,0,1,1,0,6528,
scooby_state_405df2|47|1 6518,1,2,1,2,0,0,0,0,1,1,0,2,0,0,6528,
scooby_state_405cb2|30|1 6515,3,0,0,0,1,1,1,1,0,1,1,0,2,1,6527,
scooby_state_405df2|26|1 6511,1,0,0,0,5,1,0,1,0,0,4,2,1,1,6527,
scooby_state_405df2|16|1 6513,1,0,0,1,2,0,1,0,2,0,2,1,2,0,6525,
scooby_state_405cb2|63|1 6515,0,2,1,0,0,1,1,0,0,0,1,0,1,1,6523,
scooby_state_405cb2|10|1 6513,0,0,0,1,1,1,2,0,0,1,0,1,2,1,6523,
scooby_state_405cb2|54|1 6513,1,1,0,0,0,0,1,1,3,0,0,0,2,0,6522,
scooby_state_405cb2|31|1 6507,0,2,1,1,0,1,2,2,0,1,0,1,0,2,6520,
scooby_state_405df2|39|1 6509,0,0,0,1,0,0,0,2,3,1,0,1,0,0,6517,
scooby_state_405df2|13|1 6503,1,2,0,0,2,0,0,0,2,1,0,1,0,3,6515,
scooby_state_405df2|57|1 6503,0,0,0,3,0,0,1,2,1,0,3,1,1,0,6515,
scooby_state_405df2|28|1 6506,0,1,0,0,1,2,0,0,0,0,2,0,0,0,6512,
scooby_state_405df2|55|1 6500,1,1,1,1,0,2,0,1,1,1,0,1,0,2,6512,
scooby_state_405cb2|20|1 6499,0,1,1,1,0,1,1,1,1,1,4,0,0,1,6512,
scooby_state_405cb2|61|1 6503,0,0,1,1,1,1,0,0,0,1,1,1,1,0,6511,
scooby_state_405df2|48|1 6498,0,1,1,3,2,0,1,1,0,2,0,0,0,1,6510,
scooby_state_405cb2|52|1 6497,0,0,0,0,0,1,1,1,1,1,2,0,2,1,6507,
scooby_state_405df2|24|1 6486,0,1,3,0,0,1,2,1,0,1,1,2,0,0,6498,
scooby_state_405cb2|41|1 6489,1,0,1,2,0,0,0,1,0,0,0,0,2,0,6496,
scooby_state_405cb2|43|1 6481,0,0,0,2,0,1,0,1,2,0,0,2,0,1,6490,
scooby_state_405df2|44|1 6479,1,2,1,0,0,2,1,0,0,0,0,2,0,0,6488,
scooby_state_405cb2|28|1 6479,3,1,0,0,2,0,0,0,0,1,0,0,0,0,6486,
scooby_state_405cb2|50|1 6471,1,1,1,0,0,0,0,0,0,0,0,2,0,4,6480,
scooby_state_405df2|27|1 6454,0,1,0,0,0,0,2,0,1,1,0,0,1,0,6460,
scooby_state_405df2|38|1 6444,1,0,0,2,2,1,4,0,0,2,0,0,1,3,6460,
scooby_state_405cb2|48|1 6454,0,1,0,1,1,1,0,0,1,0,1,0,0,0,6460,
scooby_state_405cb2|53|1 6450,0,1,0,0,1,1,1,0,1,1,2,0,2,0,6460,
scooby_state_405df2|33|1 6444,1,1,0,0,0,0,0,2,0,1,1,0,0,2,6452,
scooby_state_405df2|53|1 6430,2,0,1,1,1,0,1,0,1,1,1,2,0,0,6441,
scooby_state_405cb2|37|1 6427,0,2,0,1,1,1,0,0,0,1,1,3,3,0,6440,
scooby_state_405df2|51|1 6428,1,0,2,0,1,1,1,0,1,1,0,1,0,2,6439,
scooby_state_405cb2|17|1 6432,1,0,0,0,0,0,0,2,0,1,2,1,0,0,6439,
scooby_state_405df2|62|1 6428,0,1,2,1,1,0,0,1,0,0,1,1,1,1,6438,
scooby_state_405cb2|42|1 6421,2,3,0,1,1,0,1,0,0,0,1,2,2,0,6434,
scooby_state_405df2|22|1 6425,0,1,0,1,2,0,0,2,1,0,1,0,0,0,6433,
scooby_state_405df2|0|0 6427,0,0,0,0,0,0,0,2,0,3,0,0,0,0,6432,
scooby_state_405cb2|6|1 6413,1,0,1,1,0,3,0,2,2,0,1,1,0,2,6427,
scooby_state_405cb2|59|1 6415,1,0,1,1,1,2,1,1,1,0,1,1,0,0,6426,
scooby_state_405df2|7|1 6410,1,1,0,1,2,1,0,2,1,0,0,0,2,0,6421,
scooby_state_405cb2|26|1 6403,0,3,0,3,1,0,0,3,4,0,1,1,0,1,6420,
scooby_state_405cb2|0|0 6411,1,0,0,1,0,2,0,1,0,0,0,1,1,1,6419,
scooby_state_405df2|31|1 6409,1,0,0,0,0,1,0,0,1,1,0,1,0,0,6414,
scooby_state_405df2|11|1 6405,0,0,0,0,2,0,0,0,1,1,0,1,1,1,6412,
scooby_state_405df2|42|1 6399,1,1,0,1,0,1,1,0,1,0,2,2,1,1,6411,
scooby_state_405cb2|55|1 6399,3,3,0,1,0,0,0,1,2,0,0,0,1,1,6411,
scooby_state_405cb2|46|1 6401,0,1,1,0,0,0,0,2,0,0,2,2,1,1,6411,
scooby_state_405df2|9|1 6396,3,0,0,0,0,3,1,2,1,0,0,1,1,0,6408,
scooby_state_405cb2|22|1 6392,1,1,1,2,1,0,0,1,1,1,1,2,1,1,6406,
scooby_state_405cb2|11|1 6388,2,1,1,1,2,2,1,1,1,1,1,1,2,0,6405,
scooby_state_405cb2|13|1 6392,0,2,1,1,2,0,1,1,0,1,0,1,0,2,6404,
scooby_state_405df2|60|1 6393,2,0,0,1,0,0,1,0,0,0,1,0,2,1,6401,
scooby_state_405cb2|15|1 6392,0,0,0,0,0,0,0,2,0,2,1,1,3,0,6401,
scooby_state_405df2|20|1 6379,7,0,0,0,0,0,1,2,0,1,1,4,1,1,6397,
scooby_state_405df2|29|1 6383,0,2,0,0,1,1,1,1,0,1,2,2,0,0,6394,
scooby_state_405df2|40|1 6384,0,2,0,0,0,0,1,1,0,0,2,1,0,1,6392,
scooby_state_405df2|49|1 6385,1,0,0,1,0,0,1,0,1,1,0,0,1,1,6392,
scooby_state_405cb2|4|1 6383,1,1,0,1,0,0,1,0,2,0,1,0,0,0,6390,
scooby_state_405cb2|44|1 6378,1,0,0,2,1,1,2,1,1,1,0,0,0,1,6389,
scooby_state_405cb2|57|1 6375,1,0,0,0,0,2,1,0,1,0,0,0,0,2,6382,
scooby_state_405df2|18|1 6368,3,0,2,0,0,0,0,0,1,1,0,1,0,1,6377,
scooby_state_405cb2|35|1 6353,2,0,2,2,1,0,2,0,1,0,1,1,0,1,6366,
scooby_state_405cb2|24|1 6355,1,0,0,2,1,2,0,0,1,1,1,0,0,2,6366,
scooby_state_405cb2|33|1 6346,0,1,0,0,0,0,0,0,0,2,0,0,1,0,6350,
scooby_state_405d32|44|1 4903,0,0,0,0,1,0,1,0,1,0,2,1,2,1,4912,
scooby_state_405d32|27|1 4905,0,0,1,2,0,1,0,0,0,0,2,0,1,0,4912,
scooby_state_405d32|31|1 4900,0,1,1,2,1,4,0,0,1,2,0,0,0,0,4912,
scooby_state_405d32|34|1 4903,1,0,0,1,1,1,2,1,0,0,0,1,1,0,4912,
scooby_state_405d32|42|1 4901,0,0,1,1,1,0,1,1,3,0,0,1,1,1,4912,
scooby_state_405d32|14|1 4902,1,1,1,0,1,1,3,0,0,0,0,0,0,2,4912,
scooby_state_405d32|33|1 4903,2,0,0,1,0,0,1,0,0,1,0,1,1,2,4912,
scooby_state_405d32|45|1 4902,1,0,3,0,0,0,1,0,1,1,0,1,0,2,4912,
scooby_state_405d32|24|1 4905,1,0,1,1,0,0,0,1,0,0,1,0,1,1,4912,
scooby_state_405d32|21|1 4904,0,3,0,0,0,1,1,0,0,1,0,0,1,1,4912,
scooby_state_405d32|30|1 4903,1,1,0,1,0,2,0,2,0,0,0,1,1,0,4912,
scooby_state_405d32|19|1 4902,1,0,0,2,1,0,0,1,1,0,3,0,1,0,4912,
scooby_state_405d32|18|1 4902,0,1,1,1,0,1,0,0,1,0,0,4,0,1,4912,
scooby_state_405d32|32|1 4905,1,0,2,0,1,0,0,1,0,0,0,1,1,0,4912,
scooby_state_405d32|41|1 4901,2,0,1,0,1,0,1,0,1,0,1,3,1,0,4912,
scooby_state_405d32|17|1 4905,1,2,1,0,0,0,0,0,1,0,0,0,1,1,4912,
scooby_state_405d32|40|1 4900,2,1,3,1,0,0,2,0,0,0,0,1,2,0,4912,
scooby_state_405d32|26|1 4900,0,1,0,1,1,1,2,0,0,2,1,0,1,2,4912,
scooby_state_405d32|37|1 4901,0,0,1,2,0,2,1,0,2,2,0,0,1,0,4912,
scooby_state_405d32|20|1 4897,2,2,0,1,1,1,0,0,0,0,1,1,3,3,4912,
scooby_state_405d32|12|1 4904,1,3,0,0,1,1,0,0,0,0,0,0,0,2,4912,
scooby_state_405d32|38|1 4899,1,1,0,1,1,1,1,2,1,1,1,1,1,0,4912,
scooby_state_405d32|29|1 4909,1,0,0,0,1,1,0,0,0,0,0,0,0,0,4912,
scooby_state_405d32|46|1 4904,0,0,1,0,0,1,1,0,0,0,2,2,0,1,4912,
scooby_state_405d32|23|1 4910,0,0,0,0,0,0,0,0,0,0,1,0,1,0,4912,
scooby_state_405d32|16|1 4904,0,0,1,3,0,1,1,1,0,0,1,0,0,0,4912,
scooby_state_405d32|25|1 4903,2,0,1,0,0,0,0,2,0,0,1,2,1,0,4912,
scooby_state_405d32|43|1 4903,0,3,2,0,1,1,0,1,1,0,0,0,0,0,4912,
scooby_state_405d32|49|1 4903,0,1,0,0,2,0,0,1,1,2,1,0,1,0,4912,
scooby_state_405d32|47|1 4897,0,0,3,2,0,0,2,3,1,1,1,0,2,0,4912,
scooby_state_405d32|36|1 4906,0,2,0,0,0,1,0,1,0,0,1,0,0,1,4912,
scooby_state_405d32|15|1 4899,4,1,1,0,1,0,0,2,1,0,1,1,1,0,4912,
scooby_state_405d32|48|1 4906,0,0,0,2,1,0,1,0,0,0,0,1,0,1,4912,
scooby_state_405d32|28|1 4903,1,0,1,0,0,1,0,1,1,2,0,2,0,0,4912,
scooby_state_405d32|10|1 4902,0,0,1,2,0,0,2,0,1,1,1,0,0,2,4912,
scooby_state_405d32|35|1 4898,0,2,0,3,1,0,2,1,1,0,1,0,3,0,4912,
scooby_state_405d32|22|1 4909,0,0,0,1,0,0,0,0,1,0,1,0,0,0,4912,
scooby_state_405d32|11|1 4902,1,1,2,0,0,0,1,1,1,0,0,2,1,0,4912,
scooby_state_405d32|13|1 4907,1,0,0,0,0,0,0,0,0,1,0,1,1,1,4912,
scooby_state_405d32|39|1 4907,0,0,2,0,1,0,1,0,1,0,0,0,0,0,4912,
scooby_state_405bf2|56|1 4899,0,1,0,0,0,1,0,0,0,0,2,0,0,0,4903,
scooby_state_405bf2|34|1 4888,1,0,0,0,2,2,0,0,0,2,1,2,3,2,4903,
scooby_state_405bf2|39|1 4892,2,2,2,2,3,0,0,0,0,0,0,0,0,0,4903,
scooby_state_405bf2|44|1 4890,1,0,1,0,0,1,1,1,3,0,3,1,0,1,4903,
scooby_state_405bf2|51|1 4898,0,0,2,0,0,1,1,0,0,1,0,0,0,0,4903,
scooby_state_405bf2|62|1 4894,0,0,0,0,2,0,1,3,0,1,0,1,0,1,4903,
scooby_state_405bf2|48|1 4898,0,2,0,0,0,1,0,0,1,0,0,0,1,0,4903,
scooby_state_405bf2|63|1 4894,1,1,0,0,0,1,2,0,2,0,1,1,0,0,4903,
scooby_state_405bf2|3|1 4895,1,1,2,2,0,0,1,0,0,0,0,1,0,0,4903,
scooby_state_405bf2|8|1 4895,0,0,0,1,0,0,2,2,0,1,0,0,2,0,4903,
scooby_state_405bf2|46|1 4890,1,0,0,0,3,1,0,0,2,1,1,2,1,1,4903,
scooby_state_405bf2|4|1 4896,0,1,1,0,0,1,0,1,0,1,0,1,0,1,4903,
scooby_state_405bf2|50|1 4896,1,0,0,0,0,0,1,1,0,0,1,1,1,1,4903,
scooby_state_405bf2|0|0 4895,0,0,1,1,1,0,0,1,1,0,1,2,0,0,4903,
scooby_state_405bf2|41|1 4895,0,0,0,1,1,1,0,0,1,0,1,0,0,3,4903,
scooby_state_405bf2|59|1 4888,3,1,2,0,2,3,1,1,0,1,1,0,0,0,4903,
scooby_state_405bf2|47|1 4896,0,1,0,1,0,0,0,0,2,1,1,0,0,1,4903,
scooby_state_405bf2|60|1 4898,0,0,0,1,0,0,2,0,1,0,0,0,0,1,4903,
scooby_state_405bf2|1|1 4896,0,1,1,0,0,0,3,0,0,0,0,0,2,0,4903,
scooby_state_405bf2|42|1 4894,0,1,0,3,0,0,0,2,0,0,1,0,1,1,4903,
scooby_state_405bf2|57|1 4902,0,0,0,1,0,0,0,0,0,0,0,0,0,0,4903,
scooby_state_405bf2|9|1 4895,0,0,0,3,1,0,0,0,2,0,0,0,2,0,4903,
scooby_state_405bf2|6|1 4890,1,3,0,2,0,4,0,1,0,1,1,0,0,0,4903,
scooby_state_405bf2|52|1 4889,3,1,1,0,2,1,1,2,1,0,0,0,0,2,4903,
scooby_state_405bf2|43|1 4896,0,0,1,2,1,0,1,0,0,0,0,1,0,1,4903,
scooby_state_405bf2|36|1 4900,3,0,0,0,0,0,0,0,0,0,0,0,0,0,4903,
scooby_state_405bf2|45|1 4895,0,0,1,0,0,2,0,0,0,2,1,0,1,1,4903,
scooby_state_405bf2|53|1 4895,1,1,2,0,0,2,1,0,0,0,0,1,0,0,4903,
scooby_state_405bf2|35|1 4894,0,1,0,0,0,1,2,0,1,2,0,1,1,0,4903,
scooby_state_405bf2|37|1 4896,0,1,1,0,0,0,0,2,1,1,0,0,1,0,4903,
scooby_state_405bf2|5|1 4890,0,0,2,0,1,0,2,0,1,0,2,2,1,2,4903,
scooby_state_405bf2|54|1 4892,1,0,0,1,3,2,1,1,0,0,1,1,0,0,4903,
scooby_state_405bf2|38|1 4898,0,0,1,1,1,0,0,1,0,1,0,0,0,0,4903,
scooby_state_405bf2|7|1 4899,0,0,0,0,0,2,0,0,0,0,1,1,0,0,4903,
scooby_state_405bf2|61|1 4896,0,0,1,1,0,0,1,1,0,0,2,0,1,0,4903,
scooby_state_405bf2|55|1 4894,3,0,1,0,0,0,0,2,1,0,0,1,1,0,4903,
scooby_state_405bf2|58|1 4890,0,2,0,0,3,0,3,1,0,0,0,1,1,2,4903,
scooby_state_405bf2|2|1 4892,0,1,3,1,0,3,1,2,0,0,0,0,0,0,4903,
scooby_state_405bf2|40|1 4894,0,1,0,1,2,1,0,2,0,0,1,0,0,1,4903,
scooby_state_405bf2|49|1 4895,1,0,1,1,0,0,0,0,2,1,1,0,0,1,4903,
scooby_state_405d32|58|1 4596,0,1,0,0,0,0,0,0,1,3,2,2,0,0,4605,
scooby_state_405d32|50|1 4598,0,0,2,1,0,1,0,0,0,0,0,0,1,2,4605,
scooby_state_405d32|4|1 4595,1,1,0,2,0,0,1,0,3,1,0,1,0,0,4605,
scooby_state_405d32|62|1 4602,0,2,1,0,0,0,0,0,0,0,0,0,0,0,4605,
scooby_state_405d32|9|1 4597,0,0,0,0,0,0,0,1,1,2,0,1,0,3,4605,
scooby_state_405d32|61|1 4597,0,0,0,0,1,1,3,0,1,0,0,0,1,1,4605,
scooby_state_405d32|56|1 4602,0,0,0,1,0,1,0,0,0,0,0,0,1,0,4605,
scooby_state_405d32|8|1 4597,2,2,1,0,1,0,2,0,0,0,0,0,0,0,4605,
scooby_state_405d32|1|1 4600,0,0,0,0,1,0,0,0,1,1,0,1,0,1,4605,
scooby_state_405d32|6|1 4598,1,1,1,1,0,0,1,0,1,0,1,0,0,0,4605,
scooby_state_405d32|63|1 4594,0,1,0,0,1,1,3,0,0,2,1,1,1,0,4605,
scooby_state_405d32|7|1 4593,0,1,0,2,1,0,2,2,0,1,0,1,1,1,4605,
scooby_state_405d32|60|1 4597,1,0,0,1,1,1,0,1,1,0,0,1,1,0,4605,
scooby_state_405d32|59|1 4592,1,0,1,2,1,1,1,1,1,0,1,1,0,2,4605,
scooby_state_405d32|57|1 4596,0,1,0,1,2,0,0,3,1,0,0,1,0,0,4605,
scooby_state_405d32|54|1 4598,0,0,0,0,1,0,1,0,1,2,1,0,0,1,4605,
scooby_state_405d32|53|1 4599,2,0,1,1,0,1,0,0,0,0,0,0,0,1,4605,
scooby_state_405d32|52|1 4597,1,0,0,0,0,1,0,1,1,2,2,0,0,0,4605,
scooby_state_405d32|51|1 4595,1,1,0,3,1,0,0,1,1,0,1,0,1,0,4605,
scooby_state_405d32|5|1 4600,0,0,1,0,0,0,0,0,0,0,0,1,0,3,4605,
scooby_state_405d32|3|1 4599,0,0,0,1,2,0,0,0,1,0,2,0,0,0,4605,
scooby_state_405d32|2|1 4598,1,1,0,0,0,1,0,0,0,1,1,0,1,1,4605,
scooby_state_405d32|55|1 4601,0,0,0,1,0,0,0,2,0,0,0,0,0,1,4605,
scooby_state_405d32|0|0 4597,0,0,1,1,2,0,0,0,1,0,3,0,0,0,4605,
scooby_state_405bf2|28|1 4593,2,0,0,0,1,0,0,0,0,0,0,0,0,0,4596,
scooby_state_405bf2|10|1 4589,0,0,0,2,1,0,0,1,0,0,0,2,1,0,4596,
scooby_state_405bf2|11|1 4591,0,0,2,0,0,0,0,0,2,0,0,1,0,0,4596,
scooby_state_405bf2|29|1 4587,0,0,0,2,1,1,2,1,2,0,0,0,0,0,4596,
scooby_state_405bf2|15|1 4588,0,0,1,1,1,0,1,2,1,0,0,0,0,1,4596,
scooby_state_405bf2|14|1 4591,0,1,0,1,0,1,1,1,0,0,0,0,0,0,4596,
scooby_state_405bf2|12|1 4589,1,0,0,1,0,0,1,1,1,0,0,0,2,0,4596,
scooby_state_405bf2|32|1 4589,1,0,0,0,0,0,1,1,2,0,0,0,0,2,4596,
scooby_state_405bf2|16|1 4586,1,1,1,0,1,0,0,3,1,0,0,2,0,0,4596,
scooby_state_405bf2|31|1 4589,1,1,0,0,0,1,0,1,1,1,0,1,0,0,4596,
scooby_state_405bf2|33|1 4586,0,0,1,1,1,1,0,0,1,1,1,1,2,0,4596,
scooby_state_405bf2|19|1 4587,0,0,0,2,1,2,0,1,1,0,0,1,1,0,4596,
scooby_state_405bf2|17|1 4586,0,0,0,1,0,3,1,3,1,0,0,1,0,0,4596,
scooby_state_405bf2|18|1 4589,0,2,1,1,0,0,1,1,1,0,0,0,0,0,4596,
scooby_state_405bf2|30|1 4592,0,0,0,1,1,0,1,0,0,1,0,0,0,0,4596,
scooby_state_405bf2|13|1 4586,0,0,2,1,1,3,2,0,0,0,0,0,1,0,4596,
scooby_state_405bf2|23|1 4588,0,0,0,1,1,0,0,1,0,0,0,0,3,1,4595,
scooby_state_405bf2|25|1 4591,2,0,0,0,0,0,0,1,0,1,0,0,0,0,4595,
scooby_state_405bf2|27|1 4585,2,0,0,0,1,1,0,0,3,0,1,1,0,1,4595,
scooby_state_405bf2|21|1 4582,0,2,0,2,0,1,1,0,1,0,2,1,2,1,4595,
scooby_state_405bf2|26|1 4586,1,0,1,1,2,0,0,1,0,0,1,1,1,0,4595,
scooby_state_405bf2|22|1 4589,1,0,1,0,0,0,0,2,0,0,0,1,1,0,4595,
scooby_state_405bf2|20|1 4592,0,0,0,0,0,0,0,0,1,1,0,0,0,1,4595,
scooby_state_405bf2|24|1 4586,2,1,0,1,0,1,0,0,1,0,2,0,0,1,4595,
scooby_state_405cac|33|1 3225,0,0,0,0,1,0,1,0,0,0,0,0,0,0,3227,
scooby_state_405dec|18|1 3213,0,1,0,1,0,0,0,1,0,1,1,1,1,0,3220,
scooby_state_405cac|24|1 3209,0,0,0,0,0,0,0,0,1,0,0,0,0,1,3211,
scooby_state_405cac|35|1 3206,1,0,2,0,0,0,0,0,0,1,0,1,0,0,3211,
scooby_state_405dec|40|1 3196,0,1,2,0,0,1,0,0,2,0,0,1,0,1,3204,
scooby_state_405dec|49|1 3199,1,0,0,0,1,0,0,2,0,0,0,1,0,0,3204,
scooby_state_405dec|29|1 3196,1,0,1,0,0,1,0,0,2,0,0,0,1,0,3202,
scooby_state_405dec|20|1 3195,1,0,0,1,1,0,0,1,0,0,0,0,0,0,3199,
scooby_state_405dec|60|1 3189,0,0,0,0,2,0,1,0,2,0,0,1,0,0,3195,
scooby_state_405cac|57|1 3187,1,1,1,0,1,1,0,0,0,1,1,0,0,0,3194,
scooby_state_405cac|44|1 3183,1,1,0,1,0,1,0,0,0,0,0,2,0,0,3189,
scooby_state_405cac|4|1 3183,0,0,0,0,0,1,0,2,0,0,1,0,1,0,3188,
scooby_state_405dec|9|1 3186,0,0,1,0,1,0,0,0,0,0,0,0,0,0,3188,
scooby_state_405dec|11|1 3180,0,0,0,0,0,1,2,0,1,0,0,1,0,0,3185,
scooby_state_405dec|42|1 3178,1,0,0,2,0,1,1,0,1,0,0,0,0,1,3185,
scooby_state_405dec|31|1 3175,0,0,0,0,1,0,2,1,1,0,2,0,0,0,3182,
scooby_state_405cac|15|1 3169,1,0,1,2,1,0,0,0,2,1,0,0,0,0,3177,
scooby_state_405dec|7|1 3171,0,0,2,0,0,0,0,0,0,0,0,1,0,1,3175,
scooby_state_405cac|13|1 3170,1,0,0,1,0,0,1,1,0,0,0,0,0,0,3174,
scooby_state_405cac|11|1 3162,1,4,1,1,0,1,1,1,0,0,0,0,1,0,3173,
scooby_state_405cac|22|1 3171,0,0,0,0,0,1,0,0,0,0,0,0,0,0,3172,
scooby_state_405cac|46|1 3160,0,1,1,1,0,1,0,0,1,0,0,1,0,1,3167,
scooby_state_405cac|55|1 3163,0,0,0,1,0,1,0,0,0,0,0,0,1,0,3166,
scooby_state_405dec|0|0 3158,0,2,0,1,0,0,0,0,0,0,0,1,1,1,3164,
scooby_state_405dec|22|1 3157,0,2,0,0,0,2,0,0,1,0,0,0,1,0,3163,
scooby_state_405cac|0|0 3153,2,0,0,0,2,0,1,1,0,0,0,0,0,0,3159,
scooby_state_405dec|62|1 3154,1,0,0,0,1,0,0,1,0,1,0,0,0,0,3158,
scooby_state_405cac|26|1 3150,0,0,1,0,0,0,1,1,0,3,0,0,0,2,3158,
scooby_state_405dec|51|1 3153,1,1,0,0,0,1,0,0,0,0,0,1,0,0,3157,
scooby_state_405dec|53|1 3154,0,0,0,0,1,0,0,0,0,0,0,0,0,0,3155,
scooby_state_405cac|59|1 3146,0,0,0,0,0,0,0,2,1,1,0,1,0,0,3151,
scooby_state_405cac|6|1 3148,0,1,0,0,0,0,1,0,1,0,0,0,0,0,3151,
scooby_state_405cac|42|1 3140,0,0,4,0,0,0,0,0,0,0,0,0,0,0,3144,
scooby_state_405dec|33|1 3138,0,0,0,0,1,0,1,1,0,0,0,1,1,1,3144,
scooby_state_405cac|17|1 3134,0,2,0,0,0,1,0,0,0,0,1,0,1,0,3139,
scooby_state_405cac|37|1 3134,1,0,0,0,1,0,0,0,0,0,1,0,1,0,3138,
scooby_state_405dec|38|1 3131,1,0,0,1,0,1,0,1,0,0,0,0,0,1,3136,
scooby_state_405dec|27|1 3129,1,1,0,0,0,1,1,0,1,0,0,0,2,0,3136,
scooby_state_405cac|48|1 3114,1,1,0,0,0,0,0,1,0,0,0,0,0,1,3118,
scooby_state_405cac|53|1 3110,2,1,0,1,1,0,0,1,1,0,0,0,0,1,3118,
scooby_state_405dec|44|1 3105,1,0,0,0,0,0,1,0,0,0,0,0,1,0,3108,
scooby_state_405cac|50|1 3092,0,0,1,2,0,0,1,0,0,0,0,1,1,0,3098,
scooby_state_405dec|24|1 3094,0,0,0,1,0,0,0,0,1,0,0,2,0,0,3098,
scooby_state_405cac|28|1 3088,0,1,0,0,0,0,0,0,0,1,1,0,1,0,3092,
scooby_state_405cac|43|1 3078,2,0,0,2,2,1,0,0,0,0,0,1,1,1,3088,
scooby_state_405dec|48|1 3080,0,2,0,0,1,1,0,1,1,0,0,0,0,0,3086,
scooby_state_405dec|28|1 3080,0,0,0,0,1,0,0,1,0,0,1,0,1,0,3084,
scooby_state_405dec|55|1 3077,0,0,0,2,1,0,2,0,0,0,0,2,0,0,3084,
scooby_state_405dec|13|1 3081,0,1,0,0,0,0,0,0,0,0,0,0,0,0,3082,
scooby_state_405cac|41|1 3079,0,0,0,0,0,0,0,0,0,1,1,0,0,1,3082,
scooby_state_405dec|57|1 3075,0,0,1,0,0,1,0,1,0,1,0,0,1,1,3081,
scooby_state_405dec|39|1 3073,0,0,1,0,1,0,1,0,0,1,1,1,0,0,3079,
scooby_state_405dec|16|1 3062,0,4,1,0,0,0,1,0,1,0,1,1,1,0,3072,
scooby_state_405cac|52|1 3063,1,0,2,0,0,0,0,2,0,0,2,0,0,1,3071,
scooby_state_405dec|26|1 3063,0,1,0,0,0,0,1,1,1,0,1,0,0,1,3069,
scooby_state_405dec|47|1 3064,0,0,1,2,0,0,0,0,0,1,0,0,0,0,3068,
scooby_state_405dec|35|1 3057,3,1,1,0,0,0,2,0,1,0,2,0,0,1,3068,
scooby_state_405dec|15|1 3060,1,1,0,0,1,1,1,0,0,0,0,0,0,2,3067,
scooby_state_405cac|61|1 3065,0,0,0,0,0,0,0,0,0,0,0,0,1,0,3066,
scooby_state_405cac|20|1 3063,0,1,0,0,0,0,0,1,0,0,0,0,1,0,3066,
scooby_state_405dec|58|1 3058,0,0,0,0,0,0,1,1,1,0,0,3,1,0,3065,
scooby_state_405dec|36|1 3056,0,2,0,0,1,0,1,2,0,1,0,1,0,0,3064,
scooby_state_405dec|59|1 3056,0,1,0,0,1,0,1,1,0,0,0,0,2,0,3062,
scooby_state_405dec|5|1 3052,1,1,1,0,0,0,0,1,0,1,0,1,1,0,3059,
scooby_state_405cac|31|1 3055,0,1,0,0,0,0,0,0,0,1,0,0,0,1,3058,
scooby_state_405dec|37|1 3051,0,0,0,1,2,1,0,0,0,1,0,0,1,1,3058,
scooby_state_405cac|54|1 3054,0,0,0,0,0,1,0,0,0,1,0,0,0,0,3056,
scooby_state_405dec|6|1 3052,1,0,0,1,0,0,0,0,0,1,1,0,0,0,3056,
scooby_state_405cac|10|1 3054,0,0,0,1,0,0,0,0,0,0,0,0,0,0,3055,
scooby_state_405cac|63|1 3052,0,0,0,0,0,0,0,1,0,2,0,0,0,0,3055,
scooby_state_405dec|4|1 3046,1,1,1,2,0,1,0,0,0,0,0,0,1,0,3053,
scooby_state_405dec|46|1 3045,0,0,0,2,1,0,1,0,0,1,1,1,0,0,3052,
scooby_state_405cac|30|1 3044,1,0,1,0,0,1,0,0,0,0,3,1,0,0,3051,
scooby_state_405cac|39|1 3049,0,0,0,0,0,0,0,0,0,0,0,1,0,0,3050,
scooby_state_405cac|19|1 3040,0,1,2,0,0,0,0,0,0,0,0,0,0,0,3043,
scooby_state_405cac|8|1 3036,0,0,0,1,0,0,1,0,1,0,0,0,0,0,3039,
scooby_state_405dec|3|1 3035,0,0,0,1,0,0,0,1,0,0,0,0,0,0,3037,
scooby_state_405dec|50|1 3030,0,0,0,0,0,0,1,1,0,1,1,0,1,1,3036,
scooby_state_405dec|17|1 3025,0,0,0,0,0,0,1,0,0,1,0,0,1,1,3029,
scooby_state_405cac|21|1 3018,0,0,0,1,0,1,1,0,2,0,1,0,0,1,3025,
scooby_state_405dec|61|1 3017,0,0,1,0,0,0,0,0,1,0,0,0,0,0,3019,
scooby_state_405cac|32|1 3013,0,1,0,0,0,2,1,1,0,1,0,0,0,0,3019,
scooby_state_405cac|2|1 3011,0,1,0,0,0,2,1,0,1,0,1,0,0,0,3017,
scooby_state_405cac|9|1 3009,0,1,0,0,0,1,0,0,0,0,1,0,1,1,3014,
scooby_state_405cac|51|1 3006,1,0,0,1,1,2,0,0,0,0,0,0,0,0,3011,
scooby_state_405cac|40|1 3003,2,0,0,0,0,0,0,0,0,1,0,0,0,1,3007,
scooby_state_405cac|62|1 2999,0,2,0,0,0,0,0,0,0,0,1,0,0,0,3002,
scooby_state_405dec|14|1 2996,0,0,0,0,0,1,1,2,0,1,1,0,0,0,3002,
scooby_state_405cac|12|1 2993,2,0,1,0,0,1,0,0,0,1,2,0,0,0,3000,
scooby_state_405dec|25|1 2996,1,0,0,0,0,0,0,1,1,0,1,0,0,0,3000,
scooby_state_405dec|56|1 2987,0,0,0,0,0,0,2,0,0,2,0,1,0,0,2992,
scooby_state_405cac|23|1 2984,1,3,0,1,0,0,0,0,0,0,1,0,1,0,2991,
scooby_state_405cac|29|1 2983,0,0,0,1,1,0,1,0,1,1,1,0,0,0,2989,
scooby_state_405dec|45|1 2986,1,0,0,1,0,0,0,0,0,0,1,0,0,0,2989,
scooby_state_405dec|52|1 2978,1,0,0,1,1,0,1,1,0,0,1,1,0,0,2985,
scooby_state_405dec|21|1 2978,1,0,0,1,0,1,0,0,0,0,0,0,0,0,2981,
scooby_state_405dec|54|1 2978,0,0,0,0,0,0,1,0,1,0,0,0,0,0,2980,
scooby_state_405cac|18|1 2966,1,1,1,0,1,2,0,1,0,0,2,2,1,1,2979,
scooby_state_405dec|8|1 2975,0,0,1,0,0,0,1,0,1,0,0,0,1,0,2979,
scooby_state_405cac|34|1 2971,1,2,0,0,2,0,1,0,0,0,0,0,0,0,2977,
scooby_state_405dec|30|1 2963,1,2,0,0,0,1,1,1,0,1,0,0,0,0,2970,
scooby_state_405dec|19|1 2965,0,2,0,0,0,0,0,0,0,0,0,0,0,0,2967,
scooby_state_405dec|43|1 2957,1,0,0,0,0,1,1,0,0,1,0,0,1,1,2963,
scooby_state_405cac|25|1 2957,1,1,0,0,1,0,0,0,0,0,0,0,1,1,2962,
scooby_state_405cac|36|1 2951,0,1,0,2,0,0,2,2,0,1,0,0,1,0,2960,
scooby_state_405cac|3|1 2955,0,0,2,0,1,0,0,0,0,0,0,0,1,0,2959,
scooby_state_405cac|60|1 2952,0,1,0,1,0,0,0,1,1,0,0,1,0,0,2957,
scooby_state_405dec|41|1 2949,0,1,0,0,2,1,0,0,0,0,0,0,1,0,2954,
scooby_state_405dec|34|1 2946,0,0,0,0,0,0,1,0,0,2,0,0,1,0,2950,
scooby_state_405dec|10|1 2941,1,0,0,0,0,1,0,0,0,0,0,1,0,2,2946,
scooby_state_405cac|45|1 2936,0,1,0,1,1,1,1,0,0,1,1,0,1,0,2944,
scooby_state_405dec|32|1 2935,1,0,2,2,0,2,0,0,0,0,1,0,0,0,2943,
scooby_state_405cac|49|1 2934,1,0,0,0,1,0,1,0,0,0,1,0,0,1,2939,
scooby_state_405dec|23|1 2934,1,0,0,1,1,0,0,1,0,0,1,0,0,0,2939,
scooby_state_405dec|2|1 2927,1,0,0,0,0,0,1,0,1,0,0,1,2,1,2934,
scooby_state_405cac|58|1 2928,0,1,0,0,0,1,0,0,1,0,1,0,0,1,2933,
scooby_state_405cac|14|1 2930,0,0,0,0,1,0,0,0,0,0,0,0,1,0,2932,
scooby_state_405dec|63|1 2927,0,0,0,1,0,0,0,0,1,0,1,0,0,1,2931,
scooby_state_405cac|38|1 2926,0,0,0,0,0,1,0,0,1,0,0,1,0,0,2929,
scooby_state_405cac|56|1 2922,0,0,1,1,1,1,0,0,0,0,0,0,0,0,2926,
scooby_state_405cac|7|1 2917,0,0,1,0,0,0,0,0,0,0,0,1,0,0,2919,
scooby_state_405dec|12|1 2912,0,0,0,0,1,1,0,0,2,0,1,0,0,0,2917,
scooby_state_405cac|5|1 2895,1,0,0,0,0,1,1,0,1,0,1,0,0,0,2900,
scooby_state_405cac|47|1 2891,1,0,1,1,1,1,1,1,0,0,0,0,1,0,2899,
scooby_state_405cac|27|1 2876,0,0,1,0,0,0,0,0,0,0,2,1,0,2,2882,
scooby_state_405cac|16|1 2860,0,0,0,0,0,1,2,2,0,1,0,0,0,0,2866,
scooby_state_405dec|1|1 2739,1,0,0,0,0,0,0,0,0,0,1,0,0,2,2743,
scooby_state_405cac|1|1 2694,0,0,0,1,1,0,0,2,0,1,0,0,1,1,2701,
scooby_state_405bdd|15|-1 1,305,0,0,0,1,0,0,1,0,0,0,0,0,0,308,
scooby_state_405bd6|16|-1 1,1,306,0,0,0,0,0,0,0,0,0,0,0,0,308,
scooby_state_405bf2|33|0 305,0,0,0,0,2,0,0,0,0,0,0,0,0,0,307,
scooby_state_405b23|45|1 306,0,0,0,0,0,1,0,0,0,0,0,0,0,0,307,
scooby_state_405ac3|19|5 307,0,0,0,0,0,0,0,0,0,0,0,0,0,0,307,
scooby_state_405bc0|17|11 304,3,0,0,0,0,0,0,0,0,0,0,0,0,0,307,
scooby_state_404bb7|58|0 21,22,21,22,14,15,15,14,15,14,14,22,22,22,54,307,
scooby_state_405d1d|14|3 307,0,0,0,0,0,0,0,0,0,0,0,0,0,0,307,
scooby_state_4043c6|6|1 1,1,1,1,303,0,0,0,0,0,0,0,0,0,0,307,
scooby_state_404375|5|-3 304,1,0,0,0,0,0,0,0,0,0,0,1,0,1,307,
scooby_state_405cd4|4|0 9,8,8,8,8,9,8,8,8,8,10,8,8,4,195,307,
scooby_state_405acd|20|1 1,1,1,1,1,1,1,1,1,1,1,1,295,0,0,307,
scooby_state_405e1a|42|-1 306,0,1,0,0,0,0,0,0,0,0,0,0,0,0,307,
scooby_state_404a26|7|-13 307,0,0,0,0,0,0,0,0,0,0,0,0,0,0,307,
scooby_state_405b8e|4|0 307,0,0,0,0,0,0,0,0,0,0,0,0,0,0,307,
scooby_state_405b0d|44|2 307,0,0,0,0,0,0,0,0,0,0,0,0,0,0,307,
scooby_state_404a74|8|1 43,1,1,1,1,1,259,0,0,0,0,0,0,0,0,307,
scooby_state_405d00|12|-3 2,1,1,1,1,1,1,1,1,1,1,295,0,0,0,307,
scooby_state_405d16|11|-1 307,0,0,0,0,0,0,0,0,0,0,0,0,0,0,307,
scooby_state_405ce0|43|-2 302,0,0,0,0,0,0,0,0,0,0,0,0,0,0,302,
scooby_state_404ba3|54|0 1,3,0,3,2,2,0,1,0,0,1,1,1,1,4,20,
scooby_state_404ba3|32|0 2,1,1,1,1,2,1,2,1,3,0,0,2,0,2,19,
scooby_state_404ba3|31|0 2,2,1,1,2,1,2,0,1,0,1,0,0,2,2,17,
scooby_state_404552|11|0 16,0,0,0,0,0,0,0,0,0,0,0,0,0,0,16,
scooby_state_40450c|18|0 16,0,0,0,0,0,0,0,0,0,0,0,0,0,0,16,
scooby_state_404ba3|53|0 1,2,1,0,0,0,2,1,0,2,0,2,1,1,3,16,
scooby_state_404ba3|10|0 1,1,1,2,0,0,1,1,2,2,1,1,1,0,2,16,
scooby_state_404ba3|11|0 2,1,1,0,1,2,1,1,0,0,1,1,1,1,3,16,
scooby_state_404ba3|52|0 2,0,1,1,2,2,0,0,2,0,1,0,2,1,2,16,
scooby_state_404580|10|0 0,1,1,1,1,1,0,0,0,1,1,0,8,0,1,16,
scooby_state_40451c|51|33 16,0,0,0,0,0,0,0,0,0,0,0,0,0,0,16,
scooby_state_404ba3|34|0 2,2,0,1,1,2,0,1,0,2,0,2,1,0,2,16,
scooby_state_404ba3|33|0 0,0,2,1,0,0,2,1,2,0,2,0,1,2,3,16,
scooby_state_404ba3|12|0 3,0,1,2,2,0,0,1,1,1,1,1,0,0,2,15,
scooby_state_40451c|17|0 1,1,1,0,1,1,2,1,1,1,1,1,1,1,1,15,
scooby_state_404552|26|0 15,0,0,0,0,0,0,0,0,0,0,0,0,0,0,15,
scooby_state_40450c|13|0 10,0,1,1,0,0,0,1,0,0,0,0,0,1,1,15,
scooby_state_404578|26|0 15,0,0,0,0,0,0,0,0,0,0,0,0,0,0,15,
scooby_state_40450c|52|0 10,0,0,1,0,1,1,0,0,0,0,0,0,0,1,14,
scooby_state_404578|40|0 14,0,0,0,0,0,0,0,0,0,0,0,0,0,0,14,
scooby_state_40450c|48|0 13,0,0,0,0,1,0,0,0,0,0,0,0,0,0,14,
scooby_state_404578|41|0 14,0,0,0,0,0,0,0,0,0,0,0,0,0,0,14,
scooby_state_40451c|46|33 14,0,0,0,0,0,0,0,0,0,0,0,0,0,0,14,
scooby_state_404552|25|0 13,0,0,0,0,0,0,0,0,0,0,0,0,0,0,13,
scooby_state_404ba3|51|0 0,1,1,1,0,0,1,1,0,1,1,2,1,1,2,13,
scooby_state_40451c|22|0 1,0,1,0,0,1,1,1,1,2,1,2,1,1,0,13,
scooby_state_404578|25|0 13,0,0,0,0,0,0,0,0,0,0,0,0,0,0,13,
scooby_state_40451c|21|0 1,2,1,2,2,1,1,1,1,0,0,0,0,0,1,13,
scooby_state_40450c|53|0 9,0,0,0,0,0,0,1,1,1,0,0,0,0,0,12,
scooby_state_40450c|47|0 9,1,1,0,0,1,0,0,0,0,0,0,0,0,0,12,
scooby_state_404552|10|0 12,0,0,0,0,0,0,0,0,0,0,0,0,0,0,12,
scooby_state_40451c|47|33 12,0,0,0,0,0,0,0,0,0,0,0,0,0,0,12,
scooby_state_404ba3|9|0 1,0,2,0,3,1,0,0,0,0,1,0,0,2,1,11,
scooby_state_40451c|16|0 4,0,0,2,0,0,0,1,0,0,0,1,1,0,2,11,
scooby_state_404580|9|0 0,0,0,0,0,0,1,1,1,0,0,0,8,0,0,11,
scooby_state_40450c|14|0 8,0,0,0,0,0,0,0,1,1,0,0,0,0,1,11,
scooby_state_404580|59|33 0,0,0,0,0,0,0,0,0,0,0,0,10,0,0,10,
scooby_state_40451c|52|33 10,0,0,0,0,0,0,0,0,0,0,0,0,0,0,10,
scooby_state_404561|59|33 0,1,0,2,0,2,1,0,0,0,0,2,0,0,2,10,
scooby_state_404561|44|33 0,0,0,0,1,1,0,0,1,0,2,1,1,1,2,10,
scooby_state_40450c|19|0 8,0,0,0,0,0,0,0,0,0,0,0,0,0,1,9,
scooby_state_404ba3|30|0 2,0,1,1,0,1,0,1,0,0,0,1,1,0,1,9,
scooby_state_404580|11|0 0,1,1,0,1,0,0,1,1,0,0,1,1,1,1,9,
scooby_state_40450c|17|0 9,0,0,0,0,0,0,0,0,0,0,0,0,0,0,9,
scooby_state_404ba3|35|0 0,0,1,0,1,0,1,0,1,0,1,0,1,2,1,9,
scooby_state_404561|13|0 1,1,0,0,0,1,0,1,1,0,0,0,1,1,1,8,
scooby_state_404578|30|0 8,0,0,0,0,0,0,0,0,0,0,0,0,0,0,8,
scooby_state_40451c|26|0 1,1,1,0,1,0,0,0,0,1,1,1,1,0,0,8,
scooby_state_404ba3|50|0 1,0,1,1,1,1,1,1,0,0,0,0,0,0,1,8,
scooby_state_404be8|0|0 8,0,0,0,0,0,0,0,0,0,0,0,0,0,0,8,
scooby_state_404be8|47|0 8,0,0,0,0,0,0,0,0,0,0,0,0,0,0,8,
scooby_state_404578|10|0 8,0,0,0,0,0,0,0,0,0,0,0,0,0,0,8,
scooby_state_404be8|62|0 8,0,0,0,0,0,0,0,0,0,0,0,0,0,0,8,
scooby_state_40451c|23|0 0,1,1,1,0,0,0,0,0,1,0,1,0,1,2,8,
scooby_state_404bfc|18|0 8,0,0,0,0,0,0,0,0,0,0,0,0,0,0,8,
scooby_state_404be8|18|0 8,0,0,0,0,0,0,0,0,0,0,0,0,0,0,8,
scooby_state_40450c|22|0 8,0,0,0,0,0,0,0,0,0,0,0,0,0,0,8,
scooby_state_404ba3|8|0 0,1,0,1,0,0,0,1,0,1,0,1,1,1,1,8,
scooby_state_40451c|54|33 8,0,0,0,0,0,0,0,0,0,0,0,0,0,0,8,
scooby_state_404bfc|35|0 0,0,0,0,0,0,0,0,0,0,0,0,0,0,8,8,
scooby_state_404578|27|0 8,0,0,0,0,0,0,0,0,0,0,0,0,0,0,8,
scooby_state_404561|11|0 1,1,1,0,0,0,0,1,1,0,0,0,1,1,1,8,
scooby_state_404580|25|0 0,0,0,0,0,0,0,0,0,0,0,0,8,0,0,8,
scooby_state_404bfc|47|0 8,0,0,0,0,0,0,0,0,0,0,0,0,0,0,8,
scooby_state_404561|27|0 0,0,8,0,0,0,0,0,0,0,0,0,0,0,0,8,
scooby_state_40451c|18|0 1,1,0,1,0,0,0,1,1,0,1,0,1,1,0,8,
scooby_state_40450c|16|0 7,0,0,0,0,0,0,0,0,0,0,0,1,0,0,8,
scooby_state_404bfc|34|0 4,0,0,0,0,0,0,0,0,0,0,1,1,1,1,8,
scooby_state_404552|30|0 8,0,0,0,0,0,0,0,0,0,0,0,0,0,0,8,
scooby_state_404bfc|48|0 8,0,0,0,0,0,0,0,0,0,0,0,0,0,0,8,
scooby_state_404ba3|13|0 1,1,1,0,0,0,1,0,0,0,0,1,1,1,1,8,
scooby_state_40451c|24|0 0,0,0,1,1,1,1,0,0,0,1,0,1,1,1,8,
scooby_state_404552|13|0 8,0,0,0,0,0,0,0,0,0,0,0,0,0,0,8,
scooby_state_40450c|56|0 6,0,0,0,0,0,0,0,0,0,0,0,0,1,1,8,
scooby_state_404580|27|0 0,0,0,0,0,0,0,0,0,0,0,0,8,0,0,8,
scooby_state_40450c|46|0 6,0,0,0,1,0,0,1,0,0,0,0,0,0,0,8,
scooby_state_404ba3|56|0 1,0,0,1,0,1,1,0,1,1,0,0,0,0,2,8,
scooby_state_40451c|53|33 8,0,0,0,0,0,0,0,0,0,0,0,0,0,0,8,
scooby_state_404be8|61|0 8,0,0,0,0,0,0,0,0,0,0,0,0,0,0,8,
scooby_state_404be8|57|0 8,0,0,0,0,0,0,0,0,0,0,0,0,0,0,8,
scooby_state_404578|28|0 8,0,0,0,0,0,0,0,0,0,0,0,0,0,0,8,
scooby_state_404578|8|0 8,0,0,0,0,0,0,0,0,0,0,0,0,0,0,8,
scooby_state_404bfc|54|0 8,0,0,0,0,0,0,0,0,0,0,0,0,0,0,8,
scooby_state_404bfc|30|0 8,0,0,0,0,0,0,0,0,0,0,0,0,0,0,8,
scooby_state_404552|12|0 8,0,0,0,0,0,0,0,0,0,0,0,0,0,0,8,
scooby_state_404be8|54|0 8,0,0,0,0,0,0,0,0,0,0,0,0,0,0,8,
scooby_state_404bfc|19|0 8,0,0,0,0,0,0,0,0,0,0,0,0,0,0,8,
scooby_state_404578|45|0 8,0,0,0,0,0,0,0,0,0,0,0,0,0,0,8,
scooby_state_40451c|42|33 8,0,0,0,0,0,0,0,0,0,0,0,0,0,0,8,
scooby_state_40451c|48|33 8,0,0,0,0,0,0,0,0,0,0,0,0,0,0,8,
scooby_state_404578|36|0 8,0,0,0,0,0,0,0,0,0,0,0,0,0,0,8,
scooby_state_404be8|38|0 8,0,0,0,0,0,0,0,0,0,0,0,0,0,0,8,
scooby_state_404bfc|17|0 8,0,0,0,0,0,0,0,0,0,0,0,0,0,0,8,
scooby_state_40450c|50|0 8,0,0,0,0,0,0,0,0,0,0,0,0,0,0,8,
scooby_state_404580|14|0 0,0,0,0,0,0,0,0,0,0,0,0,8,0,0,8,
scooby_state_404bfc|27|0 8,0,0,0,0,0,0,0,0,0,0,0,0,0,0,8,
scooby_state_404552|21|0 8,0,0,0,0,0,0,0,0,0,0,0,0,0,0,8,
scooby_state_404578|11|0 8,0,0,0,0,0,0,0,0,0,0,0,0,0,0,8,
scooby_state_404578|44|0 8,0,0,0,0,0,0,0,0,0,0,0,0,0,0,8,
scooby_state_404bfc|29|0 8,0,0,0,0,0,0,0,0,0,0,0,0,0,0,8,
scooby_state_40450c|54|0 2,0,0,0,0,0,0,0,0,0,1,1,1,1,2,8,
scooby_state_40451c|56|33 8,0,0,0,0,0,0,0,0,0,0,0,0,0,0,8,
scooby_state_404be8|17|0 8,0,0,0,0,0,0,0,0,0,0,0,0,0,0,8,
scooby_state_404be8|56|0 8,0,0,0,0,0,0,0,0,0,0,0,0,0,0,8,
scooby_state_404bfc|38|0 0,0,0,0,0,0,0,0,0,0,0,0,0,0,8,8,
scooby_state_404bfc|44|0 8,0,0,0,0,0,0,0,0,0,0,0,0,0,0,8,
scooby_state_404561|10|0 0,0,1,1,1,1,0,0,0,1,1,1,0,0,1,8,
scooby_state_404578|21|0 8,0,0,0,0,0,0,0,0,0,0,0,0,0,0,8,
scooby_state_40451c|12|0 0,1,0,1,1,1,0,1,1,0,1,0,0,0,1,8,
scooby_state_40450c|55|0 8,0,0,0,0,0,0,0,0,0,0,0,0,0,0,8,
scooby_state_40451c|43|33 8,0,0,0,0,0,0,0,0,0,0,0,0,0,0,8,
scooby_state_404561|12|0 0,0,0,1,1,1,1,0,0,1,1,1,0,0,1,8,
scooby_state_404be8|46|0 8,0,0,0,0,0,0,0,0,0,0,0,0,0,0,8,
scooby_state_404be8|63|0 8,0,0,0,0,0,0,0,0,0,0,0,0,0,0,8,
scooby_state_404bfc|28|0 8,0,0,0,0,0,0,0,0,0,0,0,0,0,0,8,
scooby_state_40451c|49|33 8,0,0,0,0,0,0,0,0,0,0,0,0,0,0,8,
scooby_state_404be8|55|0 8,0,0,0,0,0,0,0,0,0,0,0,0,0,0,8,
scooby_state_404be8|36|0 8,0,0,0,0,0,0,0,0,0,0,0,0,0,0,8,
scooby_state_404bfc|9|0 1,0,0,0,0,0,0,0,0,0,0,0,0,0,7,8,
scooby_state_40450c|21|0 3,0,0,0,0,0,1,1,1,0,0,0,0,0,2,8,
scooby_state_404552|41|0 8,0,0,0,0,0,0,0,0,0,0,0,0,0,0,8,
scooby_state_404552|22|0 8,0,0,0,0,0,0,0,0,0,0,0,0,0,0,8,
scooby_state_404580|6|0 0,0,0,0,0,0,0,0,0,0,0,0,8,0,0,8,
scooby_state_404578|43|0 8,0,0,0,0,0,0,0,0,0,0,0,0,0,0,8,
scooby_state_404580|13|0 0,0,0,0,0,0,0,0,0,0,0,1,6,0,1,8,
scooby_state_40450c|9|0 7,0,0,0,0,0,0,0,1,0,0,0,0,0,0,8,
scooby_state_404ba3|7|0 1,0,1,0,1,1,1,0,1,0,1,1,0,0,0,8,
scooby_state_404552|29|0 8,0,0,0,0,0,0,0,0,0,0,0,0,0,0,8,
scooby_state_404552|57|0 8,0,0,0,0,0,0,0,0,0,0,0,0,0,0,8,
scooby_state_404578|37|0 8,0,0,0,0,0,0,0,0,0,0,0,0,0,0,8,
scooby_state_404578|15|0 8,0,0,0,0,0,0,0,0,0,0,0,0,0,0,8,
scooby_state_404bfc|56|0 8,0,0,0,0,0,0,0,0,0,0,0,0,0,0,8,
scooby_state_404552|44|0 8,0,0,0,0,0,0,0,0,0,0,0,0,0,0,8,
scooby_state_404552|7|0 8,0,0,0,0,0,0,0,0,0,0,0,0,0,0,8,
scooby_state_40451c|13|0 1,0,1,0,0,0,1,0,0,1,1,1,1,0,1,8,
scooby_state_40450c|10|0 6,0,0,0,1,0,1,0,0,0,0,0,0,0,0,8,
scooby_state_40450c|44|0 8,0,0,0,0,0,0,0,0,0,0,0,0,0,0,8,
scooby_state_404552|8|0 8,0,0,0,0,0,0,0,0,0,0,0,0,0,0,8,
scooby_state_404580|29|0 0,0,0,0,0,0,0,0,0,0,0,0,8,0,0,8,
scooby_state_404578|23|0 8,0,0,0,0,0,0,0,0,0,0,0,0,0,0,8,
scooby_state_40451c|14|0 0,1,0,3,1,0,0,1,0,0,0,0,0,1,1,8,
scooby_state_404be8|19|0 8,0,0,0,0,0,0,0,0,0,0,0,0,0,0,8,
scooby_state_40450c|43|0 8,0,0,0,0,0,0,0,0,0,0,0,0,0,0,8,
scooby_state_404552|45|0 8,0,0,0,0,0,0,0,0,0,0,0,0,0,0,8,
scooby_state_40450c|45|0 7,0,0,0,0,0,0,0,0,0,1,0,0,0,0,8,
scooby_state_404ba3|14|0 3,0,0,1,1,1,0,0,0,0,1,0,0,0,1,8,
scooby_state_404578|60|0 8,0,0,0,0,0,0,0,0,0,0,0,0,0,0,8,
scooby_state_404578|24|0 8,0,0,0,0,0,0,0,0,0,0,0,0,0,0,8,
scooby_state_404be8|20|0 8,0,0,0,0,0,0,0,0,0,0,0,0,0,0,8,
scooby_state_404bfc|57|0 8,0,0,0,0,0,0,0,0,0,0,0,0,0,0,8,
scooby_state_404be8|21|0 8,0,0,0,0,0,0,0,0,0,0,0,0,0,0,8,
scooby_state_404578|7|0 8,0,0,0,0,0,0,0,0,0,0,0,0,0,0,8,
scooby_state_404bfc|58|0 8,0,0,0,0,0,0,0,0,0,0,0,0,0,0,8,
scooby_state_404578|6|0 8,0,0,0,0,0,0,0,0,0,0,0,0,0,0,8,
scooby_state_40450c|49|0 7,0,0,0,0,0,0,0,0,0,0,1,0,0,0,8,
scooby_state_40451c|45|33 8,0,0,0,0,0,0,0,0,0,0,0,0,0,0,8,
scooby_state_404552|9|0 8,0,0,0,0,0,0,0,0,0,0,0,0,0,0,8,
scooby_state_404bfc|45|0 8,0,0,0,0,0,0,0,0,0,0,0,0,0,0,8,
scooby_state_404be8|45|0 8,0,0,0,0,0,0,0,0,0,0,0,0,0,0,8,
scooby_state_404561|29|0 0,0,8,0,0,0,0,0,0,0,0,0,0,0,0,8,
scooby_state_404552|56|0 8,0,0,0,0,0,0,0,0,0,0,0,0,0,0,8,
scooby_state_404bfc|21|0 8,0,0,0,0,0,0,0,0,0,0,0,0,0,0,8,
scooby_state_404580|26|0 0,0,0,0,0,0,0,0,0,0,0,0,8,0,0,8,
scooby_state_404578|57|0 8,0,0,0,0,0,0,0,0,0,0,0,0,0,0,8,
scooby_state_404552|28|0 8,0,0,0,0,0,0,0,0,0,0,0,0,0,0,8,
scooby_state_404bfc|36|0 3,0,0,0,0,0,0,0,0,0,0,0,0,0,5,8,
scooby_state_404be8|9|0 8,0,0,0,0,0,0,0,0,0,0,0,0,0,0,8,
scooby_state_404bfc|46|0 8,0,0,0,0,0,0,0,0,0,0,0,0,0,0,8,
scooby_state_404578|42|0 8,0,0,0,0,0,0,0,0,0,0,0,0,0,0,8,
scooby_state_404ba3|49|0 1,1,0,0,0,0,0,0,1,0,0,0,0,2,3,8,
scooby_state_40451c|19|0 1,0,1,0,1,1,1,0,0,1,0,1,0,0,1,8,
scooby_state_404578|58|0 8,0,0,0,0,0,0,0,0,0,0,0,0,0,0,8,
scooby_state_40451c|50|33 8,0,0,0,0,0,0,0,0,0,0,0,0,0,0,8,
scooby_state_40450c|51|0 7,0,0,0,0,0,0,0,0,0,0,0,1,0,0,8,
scooby_state_404be8|11|0 8,0,0,0,0,0,0,0,0,0,0,0,0,0,0,8,
scooby_state_40451c|20|0 0,0,0,0,0,0,0,0,0,0,1,0,1,1,5,8,
scooby_state_40450c|11|0 8,0,0,0,0,0,0,0,0,0,0,0,0,0,0,8,
scooby_state_40451c|15|0 1,0,1,0,0,1,1,0,1,1,0,0,1,0,1,8,
scooby_state_404ba3|55|0 0,0,1,0,0,0,0,1,0,0,1,1,1,1,2,8,
scooby_state_404552|24|0 8,0,0,0,0,0,0,0,0,0,0,0,0,0,0,8,
scooby_state_404578|39|0 8,0,0,0,0,0,0,0,0,0,0,0,0,0,0,8,
scooby_state_404578|29|0 8,0,0,0,0,0,0,0,0,0,0,0,0,0,0,8,
scooby_state_40451c|25|0 1,0,0,0,0,1,0,1,1,0,0,0,0,0,4,8,
scooby_state_404561|28|0 0,0,8,0,0,0,0,0,0,0,0,0,0,0,0,8,
scooby_state_404bfc|11|0 8,0,0,0,0,0,0,0,0,0,0,0,0,0,0,8,
scooby_state_404552|43|0 8,0,0,0,0,0,0,0,0,0,0,0,0,0,0,8,
scooby_state_404561|14|0 0,0,1,1,1,0,1,0,0,1,1,1,0,0,1,8,
scooby_state_404578|59|0 8,0,0,0,0,0,0,0,0,0,0,0,0,0,0,8,
scooby_state_40450c|15|0 8,0,0,0,0,0,0,0,0,0,0,0,0,0,0,8,
scooby_state_404be8|44|0 8,0,0,0,0,0,0,0,0,0,0,0,0,0,0,8,
scooby_state_404552|6|0 8,0,0,0,0,0,0,0,0,0,0,0,0,0,0,8,
scooby_state_404be8|1|0 8,0,0,0,0,0,0,0,0,0,0,0,0,0,0,8,
scooby_state_404be8|7|0 8,0,0,0,0,0,0,0,0,0,0,0,0,0,0,8,
scooby_state_40451c|55|33 8,0,0,0,0,0,0,0,0,0,0,0,0,0,0,8,
scooby_state_404bfc|31|0 8,0,0,0,0,0,0,0,0,0,0,0,0,0,0,8,
scooby_state_404be8|58|0 8,0,0,0,0,0,0,0,0,0,0,0,0,0,0,8,
scooby_state_404552|15|0 8,0,0,0,0,0,0,0,0,0,0,0,0,0,0,8,
scooby_state_404ba3|36|0 1,1,0,1,1,1,0,1,0,0,0,1,0,0,1,8,
scooby_state_404580|12|0 0,1,1,1,0,1,1,0,0,1,1,0,0,0,1,8,
scooby_state_404580|28|0 0,0,0,0,0,0,0,0,0,0,0,0,8,0,0,8,
scooby_state_40450c|57|0 3,1,1,1,1,0,0,0,0,0,0,0,0,0,1,8,
scooby_state_40450c|12|0 6,0,0,0,0,0,0,0,0,1,0,0,0,0,1,8,
scooby_state_404578|22|0 8,0,0,0,0,0,0,0,0,0,0,0,0,0,0,8,
scooby_state_404bfc|20|0 8,0,0,0,0,0,0,0,0,0,0,0,0,0,0,8,
scooby_state_404578|56|0 8,0,0,0,0,0,0,0,0,0,0,0,0,0,0,8,
scooby_state_404bfc|37|0 1,0,0,0,0,0,0,0,0,0,0,0,0,0,7,8,
scooby_state_404552|27|0 8,0,0,0,0,0,0,0,0,0,0,0,0,0,0,8,
scooby_state_404580|7|0 0,0,0,0,0,0,0,0,0,0,0,0,8,0,0,8,
scooby_state_404bfc|8|0 0,0,0,0,0,0,0,0,0,0,0,0,0,0,8,8,
scooby_state_404be8|35|0 8,0,0,0,0,0,0,0,0,0,0,0,0,0,0,8,
scooby_state_404552|58|0 8,0,0,0,0,0,0,0,0,0,0,0,0,0,0,8,
scooby_state_404552|23|0 8,0,0,0,0,0,0,0,0,0,0,0,0,0,0,8,
scooby_state_404578|38|0 8,0,0,0,0,0,0,0,0,0,0,0,0,0,0,8,
scooby_state_404552|42|0 8,0,0,0,0,0,0,0,0,0,0,0,0,0,0,8,
scooby_state_404be8|37|0 8,0,0,0,0,0,0,0,0,0,0,0,0,0,0,8,
scooby_state_404be8|8|0 8,0,0,0,0,0,0,0,0,0,0,0,0,0,0,8,
scooby_state_40451c|44|33 8,0,0,0,0,0,0,0,0,0,0,0,0,0,0,8,
scooby_state_404561|25|0 0,8,0,0,0,0,0,0,0,0,0,0,0,0,0,8,
scooby_state_404bfc|10|0 4,0,0,0,0,0,0,0,0,0,0,0,0,0,4,8,
scooby_state_404be8|48|0 8,0,0,0,0,0,0,0,0,0,0,0,0,0,0,8,
scooby_state_404580|8|0 0,0,0,0,0,0,0,0,0,0,0,0,8,0,0,8,
scooby_state_40450c|20|0 7,1,0,0,0,0,0,0,0,0,0,0,0,0,0,8,
scooby_state_404be8|10|0 8,0,0,0,0,0,0,0,0,0,0,0,0,0,0,8,
scooby_state_404552|60|0 8,0,0,0,0,0,0,0,0,0,0,0,0,0,0,8,
scooby_state_404552|59|0 8,0,0,0,0,0,0,0,0,0,0,0,0,0,0,8,
scooby_state_404bfc|55|0 8,0,0,0,0,0,0,0,0,0,0,0,0,0,0,8,
scooby_state_404552|14|0 8,0,0,0,0,0,0,0,0,0,0,0,0,0,0,8,
scooby_state_404561|26|0 0,6,2,0,0,0,0,0,0,0,0,0,0,0,0,8,
scooby_state_404be8|34|0 8,0,0,0,0,0,0,0,0,0,0,0,0,0,0,8,
scooby_state_404bfc|7|0 0,0,0,0,0,0,0,0,0,0,0,0,0,0,8,8,
scooby_state_404578|9|0 8,0,0,0,0,0,0,0,0,0,0,0,0,0,0,8,
scooby_state_404b33|1|0 6,0,0,0,0,1,0,0,0,0,0,0,0,0,0,7,
scooby_state_404561|58|33 1,1,1,0,0,0,0,0,0,1,0,0,1,1,1,7,
scooby_state_404b33|2|0 5,0,0,0,0,0,1,1,0,0,0,0,0,0,0,7,
scooby_state_404580|20|0 0,0,0,0,0,0,0,0,0,0,0,0,7,0,0,7,
scooby_state_40451c|7|0 0,0,1,0,1,1,0,0,1,1,0,1,0,0,1,7,
scooby_state_404552|0|0 7,0,0,0,0,0,0,0,0,0,0,0,0,0,0,7,
scooby_state_404561|5|0 0,0,7,0,0,0,0,0,0,0,0,0,0,0,0,7,
scooby_state_404552|55|0 7,0,0,0,0,0,0,0,0,0,0,0,0,0,0,7,
scooby_state_40450c|27|0 4,1,1,1,0,0,0,0,0,0,0,0,0,0,0,7,
scooby_state_404580|5|0 0,0,0,0,0,0,0,0,0,0,0,0,7,0,0,7,
scooby_state_40450c|23|0 7,0,0,0,0,0,0,0,0,0,0,0,0,0,0,7,
scooby_state_404b33|3|0 5,0,0,0,0,0,0,0,1,0,0,0,0,1,0,7,
scooby_state_40450c|38|0 5,0,0,0,0,0,0,0,0,0,1,0,1,0,0,7,
scooby_state_404b33|0|0 4,0,0,0,1,0,0,0,0,1,0,1,0,0,0,7,
scooby_state_404580|58|33 0,0,0,0,0,0,0,0,1,0,0,0,6,0,0,7,
scooby_state_404ba3|37|0 0,0,1,0,0,0,1,0,1,1,0,0,1,1,1,7,
scooby_state_404ba3|29|0 0,1,0,0,0,0,1,0,1,1,1,0,0,1,1,7,
scooby_state_404578|55|0 7,0,0,0,0,0,0,0,0,0,0,0,0,0,0,7,
scooby_state_404b33|62|0 4,1,0,0,0,0,0,0,0,0,0,0,1,0,0,6,
scooby_state_404561|45|34 6,0,0,0,0,0,0,0,0,0,0,0,0,0,0,6,
scooby_state_404be8|49|0 6,0,0,0,0,0,0,0,0,0,0,0,0,0,0,6,
scooby_state_404be8|29|0 6,0,0,0,0,0,0,0,0,0,0,0,0,0,0,6,
scooby_state_404be8|12|0 6,0,0,0,0,0,0,0,0,0,0,0,0,0,0,6,
scooby_state_404bfc|49|0 6,0,0,0,0,0,0,0,0,0,0,0,0,0,0,6,
scooby_state_404580|0|0 0,0,0,0,0,0,0,0,0,1,1,1,1,1,1,6,
scooby_state_404be8|2|0 6,0,0,0,0,0,0,0,0,0,0,0,0,0,0,6,
scooby_state_40451c|61|33 6,0,0,0,0,0,0,0,0,0,0,0,0,0,0,6,
scooby_state_40451c|60|33 6,0,0,0,0,0,0,0,0,0,0,0,0,0,0,6,
scooby_state_404be8|28|0 6,0,0,0,0,0,0,0,0,0,0,0,0,0,0,6,
scooby_state_404bfc|1|0 2,1,1,1,1,0,0,0,0,0,0,0,0,0,0,6,
scooby_state_404561|59|34 6,0,0,0,0,0,0,0,0,0,0,0,0,0,0,6,
scooby_state_404bfc|32|0 6,0,0,0,0,0,0,0,0,0,0,0,0,0,0,6,
scooby_state_405d70|11|0 6,0,0,0,0,0,0,0,0,0,0,0,0,0,0,6,
scooby_state_404bfc|2|0 2,0,0,0,0,1,1,1,1,0,0,0,0,0,0,6,
scooby_state_404561|43|33 1,0,1,1,0,0,0,1,0,1,0,0,0,1,0,6,
scooby_state_404552|40|0 6,0,0,0,0,0,0,0,0,0,0,0,0,0,0,6,
scooby_state_405d70|42|0 6,0,0,0,0,0,0,0,0,0,0,0,0,0,0,6,
scooby_state_405c30|44|0 6,0,0,0,0,0,0,0,0,0,0,0,0,0,0,6,
scooby_state_405d70|48|0 6,0,0,0,0,0,0,0,0,0,0,0,0,0,0,6,
scooby_state_404561|44|34 6,0,0,0,0,0,0,0,0,0,0,0,0,0,0,6,
scooby_state_404bfc|22|0 6,0,0,0,0,0,0,0,0,0,0,0,0,0,0,6,
scooby_state_404be8|22|0 6,0,0,0,0,0,0,0,0,0,0,0,0,0,0,6,
scooby_state_404561|0|0 1,1,0,0,0,0,0,1,1,0,0,0,1,1,0,6,
scooby_state_405c30|42|0 6,0,0,0,0,0,0,0,0,0,0,0,0,0,0,6,
scooby_state_404b33|4|0 5,0,0,0,0,0,0,0,0,0,0,0,0,0,1,6,
scooby_state_404580|59|34 6,0,0,0,0,0,0,0,0,0,0,0,0,0,0,6,
scooby_state_404bfc|39|0 0,0,0,0,0,0,0,0,0,0,0,0,0,0,6,6,
scooby_state_404bfc|12|0 6,0,0,0,0,0,0,0,0,0,0,0,0,0,0,6,
scooby_state_404be8|39|0 6,0,0,0,0,0,0,0,0,0,0,0,0,0,0,6,
scooby_state_404b33|63|0 4,0,1,1,0,0,0,0,0,0,0,0,0,0,0,6,
scooby_state_404bfc|59|0 6,0,0,0,0,0,0,0,0,0,0,0,0,0,0,6,
scooby_state_404be8|59|0 6,0,0,0,0,0,0,0,0,0,0,0,0,0,0,6,
scooby_state_404580|44|33 0,0,0,0,0,0,0,0,0,0,0,0,5,0,0,5,
scooby_state_405d70|59|0 5,0,0,0,0,0,0,0,0,0,0,0,0,0,0,5,
scooby_state_404561|40|33 1,0,2,0,0,0,1,0,0,0,0,0,0,0,1,5,
scooby_state_404580|41|33 0,0,0,0,0,0,0,0,0,0,0,0,5,0,0,5,
scooby_state_404580|40|33 0,0,0,0,0,0,0,0,0,0,0,0,5,0,0,5,
scooby_state_404580|42|33 0,0,0,0,0,0,0,0,0,0,0,0,5,0,0,5,
scooby_state_404b33|44|0 4,0,0,0,0,0,0,0,0,0,0,1,0,0,0,5,
scooby_state_404561|34|33 0,0,0,0,1,1,1,1,1,0,0,0,0,0,0,5,
scooby_state_404b33|61|0 3,0,1,0,0,0,1,0,0,0,0,0,0,0,0,5,
scooby_state_405d70|63|0 5,0,0,0,0,0,0,0,0,0,0,0,0,0,0,5,
scooby_state_405d70|21|0 5,0,0,0,0,0,0,0,0,0,0,0,0,0,0,5,
scooby_state_405d70|38|0 5,0,0,0,0,0,0,0,0,0,0,0,0,0,0,5,
scooby_state_404b33|25|0 5,0,0,0,0,0,0,0,0,0,0,0,0,0,0,5,
scooby_state_404580|60|33 0,0,0,0,0,0,0,0,0,0,0,0,5,0,0,5,
scooby_state_405d70|54|0 5,0,0,0,0,0,0,0,0,0,0,0,0,0,0,5,
scooby_state_405d70|7|0 5,0,0,0,0,0,0,0,0,0,0,0,0,0,0,5,
scooby_state_404b33|37|0 4,0,0,0,1,0,0,0,0,0,0,0,0,0,0,5,
scooby_state_404580|63|33 0,0,0,0,0,0,0,0,0,0,0,0,5,0,0,5,
scooby_state_404552|36|0 5,0,0,0,0,0,0,0,0,0,0,0,0,0,0,5,
scooby_state_404561|48|33 0,0,1,0,0,0,0,0,0,1,0,1,0,0,2,5,
scooby_state_405c30|40|0 5,0,0,0,0,0,0,0,0,0,0,0,0,0,0,5,
scooby_state_405d70|17|0 5,0,0,0,0,0,0,0,0,0,0,0,0,0,0,5,
scooby_state_404b33|11|0 4,0,0,0,0,0,0,0,0,0,0,0,0,0,1,5,
scooby_state_405d70|5|0 5,0,0,0,0,0,0,0,0,0,0,0,0,0,0,5,
scooby_state_405d70|0|0 5,0,0,0,0,0,0,0,0,0,0,0,0,0,0,5,
scooby_state_404b33|18|0 5,0,0,0,0,0,0,0,0,0,0,0,0,0,0,5,
scooby_state_404b33|54|0 3,0,1,0,0,0,0,0,0,0,0,0,0,1,0,5,
scooby_state_404580|62|33 0,0,0,0,0,0,0,0,0,0,0,0,5,0,0,5,
scooby_state_404b33|58|0 4,0,0,0,1,0,0,0,0,0,0,0,0,0,0,5,
scooby_state_404561|57|33 0,0,0,1,0,0,0,0,1,0,1,0,1,1,0,5,
scooby_state_404561|47|33 0,0,1,1,0,0,1,1,1,0,0,0,0,0,0,5,
scooby_state_405d70|60|0 5,0,0,0,0,0,0,0,0,0,0,0,0,0,0,5,
scooby_state_404b33|15|0 5,0,0,0,0,0,0,0,0,0,0,0,0,0,0,5,
scooby_state_405d70|29|0 5,0,0,0,0,0,0,0,0,0,0,0,0,0,0,5,
scooby_state_404b33|23|0 5,0,0,0,0,0,0,0,0,0,0,0,0,0,0,5,
scooby_state_405d70|13|0 5,0,0,0,0,0,0,0,0,0,0,0,0,0,0,5,
scooby_state_405c30|62|0 5,0,0,0,0,0,0,0,0,0,0,0,0,0,0,5,
scooby_state_404b33|8|0 5,0,0,0,0,0,0,0,0,0,0,0,0,0,0,5,
scooby_state_404b33|60|0 3,0,0,1,0,0,0,0,1,0,0,0,0,0,0,5,
scooby_state_404b33|40|0 4,0,0,0,0,0,1,0,0,0,0,0,0,0,0,5,
scooby_state_404b33|43|0 4,0,0,0,0,0,0,0,1,0,0,0,0,0,0,5,
scooby_state_404b33|22|0 5,0,0,0,0,0,0,0,0,0,0,0,0,0,0,5,
scooby_state_404b33|51|0 5,0,0,0,0,0,0,0,0,0,0,0,0,0,0,5,
scooby_state_404580|48|33 1,1,1,1,1,0,0,0,0,0,0,0,0,0,0,5,
scooby_state_405d70|9|0 5,0,0,0,0,0,0,0,0,0,0,0,0,0,0,5,
scooby_state_404552|1|0 5,0,0,0,0,0,0,0,0,0,0,0,0,0,0,5,
scooby_state_404561|63|33 0,0,0,0,0,1,0,0,0,1,1,0,1,0,1,5,
scooby_state_405d70|50|0 5,0,0,0,0,0,0,0,0,0,0,0,0,0,0,5,
scooby_state_405d70|3|0 5,0,0,0,0,0,0,0,0,0,0,0,0,0,0,5,
scooby_state_404561|15|0 1,0,0,0,0,1,0,1,1,0,0,0,1,0,0,5,
scooby_state_404b33|39|0 3,0,0,0,0,1,0,0,0,1,0,0,0,0,0,5,
scooby_state_405d70|58|0 5,0,0,0,0,0,0,0,0,0,0,0,0,0,0,5,
scooby_state_404561|62|33 0,1,0,1,0,0,0,0,0,0,0,1,0,1,1,5,
scooby_state_405ce0|43|0 5,0,0,0,0,0,0,0,0,0,0,0,0,0,0,5,
scooby_state_404580|61|33 0,0,0,0,0,0,0,0,0,0,0,0,5,0,0,5,
scooby_state_404561|61|33 1,0,0,0,1,0,0,0,0,1,0,0,1,0,1,5,
scooby_state_404b33|33|0 4,0,0,0,0,0,0,0,0,0,0,0,0,0,1,5,
[...]
scooby_state_404533|52|1 2,0,0,0,0,0,0,0,0,0,0,0,0,0,0,2,
scooby_state_40452b|19|1 2,0,0,0,0,0,0,0,0,0,0,0,0,0,0,2,
scooby_state_405c2a|52|0 2,0,0,0,0,0,0,0,0,0,0,0,0,0,0,2,
scooby_state_40452b|48|1 2,0,0,0,0,0,0,0,0,0,0,0,0,0,0,2,
scooby_state_404b43|34|1 2,0,0,0,0,0,0,0,0,0,0,0,0,0,0,2,
scooby_state_404552|35|0 2,0,0,0,0,0,0,0,0,0,0,0,0,0,0,2,
scooby_state_404533|47|1 2,0,0,0,0,0,0,0,0,0,0,0,0,0,0,2,
scooby_state_404bb2|11|1 2,0,0,0,0,0,0,0,0,0,0,0,0,0,0,2,
scooby_state_405d6a|62|0 2,0,0,0,0,0,0,0,0,0,0,0,0,0,0,2,
scooby_state_404bfc|63|0 2,0,0,0,0,0,0,0,0,0,0,0,0,0,0,2,
scooby_state_404b43|21|1 2,0,0,0,0,0,0,0,0,0,0,0,0,0,0,2,
scooby_state_404be8|43|0 2,0,0,0,0,0,0,0,0,0,0,0,0,0,0,2,
scooby_state_404533|51|1 1,0,0,0,0,0,0,0,0,0,0,0,0,0,0,1,
scooby_state_405d70|19|0 1,0,0,0,0,0,0,0,0,0,0,0,0,0,0,1,
scooby_state_40452b|10|1 1,0,0,0,0,0,0,0,0,0,0,0,0,0,0,1,
scooby_state_405d6a|30|0 1,0,0,0,0,0,0,0,0,0,0,0,0,0,0,1,
scooby_state_405c2a|20|0 1,0,0,0,0,0,0,0,0,0,0,0,0,0,0,1,
scooby_state_405d6a|20|0 1,0,0,0,0,0,0,0,0,0,0,0,0,0,0,1,
scooby_state_404533|8|1 1,0,0,0,0,0,0,0,0,0,0,0,0,0,0,1,
scooby_state_405c2a|56|1 1,0,0,0,0,0,0,0,0,0,0,0,0,0,0,1,
scooby_state_404bb2|56|1 1,0,0,0,0,0,0,0,0,0,0,0,0,0,0,1,
scooby_state_405d6a|13|0 1,0,0,0,0,0,0,0,0,0,0,0,0,0,0,1,
scooby_state_405bf2|27|0 1,0,0,0,0,0,0,0,0,0,0,0,0,0,0,1,
scooby_state_405ac0|43|-13 1,0,0,0,0,0,0,0,0,0,0,0,0,0,0,1,
scooby_state_405d6a|1|0 1,0,0,0,0,0,0,0,0,0,0,0,0,0,0,1,
scooby_state_405c2a|32|0 1,0,0,0,0,0,0,0,0,0,0,0,0,0,0,1,
scooby_state_404b43|58|1 1,0,0,0,0,0,0,0,0,0,0,0,0,0,0,1,
scooby_state_404bb2|36|1 1,0,0,0,0,0,0,0,0,0,0,0,0,0,0,1,
scooby_state_405c2a|3|0 1,0,0,0,0,0,0,0,0,0,0,0,0,0,0,1,
scooby_state_40452b|58|1 1,0,0,0,0,0,0,0,0,0,0,0,0,0,0,1,
scooby_state_405d6a|17|0 1,0,0,0,0,0,0,0,0,0,0,0,0,0,0,1,
scooby_state_405bc0|17|0 1,0,0,0,0,0,0,0,0,0,0,0,0,0,0,1,
scooby_state_404406|16|1 1,0,0,0,0,0,0,0,0,0,0,0,0,0,0,1,
scooby_state_405c01|48|1 1,0,0,0,0,0,0,0,0,0,0,0,0,0,0,1,
scooby_state_40452b|13|1 1,0,0,0,0,0,0,0,0,0,0,0,0,0,0,1,
scooby_state_405d6a|36|0 1,0,0,0,0,0,0,0,0,0,0,0,0,0,0,1,
scooby_state_40452b|11|1 1,0,0,0,0,0,0,0,0,0,0,0,0,0,0,1,
scooby_state_405b44|45|1 1,0,0,0,0,0,0,0,0,0,0,0,0,0,0,1,
scooby_state_404533|45|1 1,0,0,0,0,0,0,0,0,0,0,0,0,0,0,1,
scooby_state_40452b|21|1 1,0,0,0,0,0,0,0,0,0,0,0,0,0,0,1,
scooby_state_404b43|19|1 1,0,0,0,0,0,0,0,0,0,0,0,0,0,0,1,
scooby_state_40452b|17|1 1,0,0,0,0,0,0,0,0,0,0,0,0,0,0,1,
scooby_state_404b43|54|1 1,0,0,0,0,0,0,0,0,0,0,0,0,0,0,1,
scooby_state_404bb2|7|1 1,0,0,0,0,0,0,0,0,0,0,0,0,0,0,1,
scooby_state_405c2a|29|0 1,0,0,0,0,0,0,0,0,0,0,0,0,0,0,1,
scooby_state_404b43|44|1 1,0,0,0,0,0,0,0,0,0,0,0,0,0,0,1,
scooby_state_4044c5|19|1 1,0,0,0,0,0,0,0,0,0,0,0,0,0,0,1,
scooby_state_405d6a|9|0 1,0,0,0,0,0,0,0,0,0,0,0,0,0,0,1,
scooby_state_405c2a|61|0 1,0,0,0,0,0,0,0,0,0,0,0,0,0,0,1,
scooby_state_40452b|44|1 1,0,0,0,0,0,0,0,0,0,0,0,0,0,0,1,
scooby_state_404b43|5|1 1,0,0,0,0,0,0,0,0,0,0,0,0,0,0,1,
scooby_state_40452b|12|1 1,0,0,0,0,0,0,0,0,0,0,0,0,0,0,1,
scooby_state_404b43|60|1 1,0,0,0,0,0,0,0,0,0,0,0,0,0,0,1,
scooby_state_404b43|51|1 1,0,0,0,0,0,0,0,0,0,0,0,0,0,0,1,
scooby_state_405c2a|36|0 1,0,0,0,0,0,0,0,0,0,0,0,0,0,0,1,
scooby_state_404bb2|30|1 1,0,0,0,0,0,0,0,0,0,0,0,0,0,0,1,
scooby_state_405c2a|35|0 1,0,0,0,0,0,0,0,0,0,0,0,0,0,0,1,
scooby_state_40452b|52|1 1,0,0,0,0,0,0,0,0,0,0,0,0,0,0,1,
scooby_state_40452b|43|1 1,0,0,0,0,0,0,0,0,0,0,0,0,0,0,1,
scooby_state_40452b|45|1 1,0,0,0,0,0,0,0,0,0,0,0,0,0,0,1,
scooby_state_404533|55|1 1,0,0,0,0,0,0,0,0,0,0,0,0,0,0,1,
scooby_state_404533|43|1 1,0,0,0,0,0,0,0,0,0,0,0,0,0,0,1,
scooby_state_404b43|33|1 1,0,0,0,0,0,0,0,0,0,0,0,0,0,0,1,
scooby_state_404b43|16|1 1,0,0,0,0,0,0,0,0,0,0,0,0,0,0,1,
scooby_state_40452b|46|1 1,0,0,0,0,0,0,0,0,0,0,0,0,0,0,1,
scooby_state_404b43|8|1 1,0,0,0,0,0,0,0,0,0,0,0,0,0,0,1,
scooby_state_404bb2|15|1 1,0,0,0,0,0,0,0,0,0,0,0,0,0,0,1,
scooby_state_405c2a|35|1 1,0,0,0,0,0,0,0,0,0,0,0,0,0,0,1,
scooby_state_404b43|37|1 1,0,0,0,0,0,0,0,0,0,0,0,0,0,0,1,
scooby_state_404b43|40|1 1,0,0,0,0,0,0,0,0,0,0,0,0,0,0,1,
scooby_state_404bb2|14|1 1,0,0,0,0,0,0,0,0,0,0,0,0,0,0,1,
scooby_state_40452b|9|1 1,0,0,0,0,0,0,0,0,0,0,0,0,0,0,1,
scooby_state_404533|49|1 1,0,0,0,0,0,0,0,0,0,0,0,0,0,0,1,
scooby_state_40452b|49|1 1,0,0,0,0,0,0,0,0,0,0,0,0,0,0,1,
scooby_state_404533|42|1 1,0,0,0,0,0,0,0,0,0,0,0,0,0,0,1,
scooby_state_405d41|53|1 1,0,0,0,0,0,0,0,0,0,0,0,0,0,0,1,
scooby_state_404bb2|49|1 1,0,0,0,0,0,0,0,0,0,0,0,0,0,0,1,
scooby_state_404b43|53|1 1,0,0,0,0,0,0,0,0,0,0,0,0,0,0,1,
scooby_state_405c2a|14|1 1,0,0,0,0,0,0,0,0,0,0,0,0,0,0,1,
scooby_state_405d6a|45|0 1,0,0,0,0,0,0,0,0,0,0,0,0,0,0,1,
scooby_state_405dc0|55|1 1,0,0,0,0,0,0,0,0,0,0,0,0,0,0,1,
scooby_state_404b43|50|1 1,0,0,0,0,0,0,0,0,0,0,0,0,0,0,1,
scooby_state_404533|50|1 1,0,0,0,0,0,0,0,0,0,0,0,0,0,0,1,
scooby_state_404b43|47|1 1,0,0,0,0,0,0,0,0,0,0,0,0,0,0,1,
scooby_state_405c2a|57|1 1,0,0,0,0,0,0,0,0,0,0,0,0,0,0,1,
scooby_state_404552|61|0 1,0,0,0,0,0,0,0,0,0,0,0,0,0,0,1,
scooby_state_405c30|12|1 1,0,0,0,0,0,0,0,0,0,0,0,0,0,0,1,
scooby_state_405c2a|59|0 1,0,0,0,0,0,0,0,0,0,0,0,0,0,0,1,
scooby_state_404533|20|1 1,0,0,0,0,0,0,0,0,0,0,0,0,0,0,1,
scooby_state_405c2a|27|0 1,0,0,0,0,0,0,0,0,0,0,0,0,0,0,1,
scooby_state_40452b|51|1 1,0,0,0,0,0,0,0,0,0,0,0,0,0,0,1,
scooby_state_404561|54|34 1,0,0,0,0,0,0,0,0,0,0,0,0,0,0,1,
scooby_state_405e04|56|1 1,0,0,0,0,0,0,0,0,0,0,0,0,0,0,1,
scooby_state_404578|20|0 1,0,0,0,0,0,0,0,0,0,0,0,0,0,0,1,
scooby_state_40451c|11|0 0,0,0,0,0,0,0,0,0,0,0,0,1,0,0,1,
scooby_state_405d6a|33|0 1,0,0,0,0,0,0,0,0,0,0,0,0,0,0,1,
scooby_state_404533|48|1 1,0,0,0,0,0,0,0,0,0,0,0,0,0,0,1,
scooby_state_404b43|9|1 1,0,0,0,0,0,0,0,0,0,0,0,0,0,0,1,
scooby_state_404533|16|1 1,0,0,0,0,0,0,0,0,0,0,0,0,0,0,1,
scooby_state_405c2a|5|0 1,0,0,0,0,0,0,0,0,0,0,0,0,0,0,1,
scooby_state_404b43|46|1 1,0,0,0,0,0,0,0,0,0,0,0,0,0,0,1,
scooby_state_404c02|48|1 1,0,0,0,0,0,0,0,0,0,0,0,0,0,0,1,
scooby_state_405c2a|8|0 1,0,0,0,0,0,0,0,0,0,0,0,0,0,0,1,
scooby_state_404d0f|52|4 1,0,0,0,0,0,0,0,0,0,0,0,0,0,0,1,
scooby_state_404533|15|1 1,0,0,0,0,0,0,0,0,0,0,0,0,0,0,1,
scooby_state_405c2a|41|0 1,0,0,0,0,0,0,0,0,0,0,0,0,0,0,1,
scooby_state_405c2a|43|0 1,0,0,0,0,0,0,0,0,0,0,0,0,0,0,1,
scooby_state_404bb2|8|1 1,0,0,0,0,0,0,0,0,0,0,0,0,0,0,1,
scooby_state_404533|56|1 1,0,0,0,0,0,0,0,0,0,0,0,0,0,0,1,
scooby_state_404b43|29|1 1,0,0,0,0,0,0,0,0,0,0,0,0,0,0,1,
scooby_state_404bb2|13|1 1,0,0,0,0,0,0,0,0,0,0,0,0,0,0,1,
scooby_state_4046ce|27|5 1,0,0,0,0,0,0,0,0,0,0,0,0,0,0,1,
scooby_state_405c2a|60|0 1,0,0,0,0,0,0,0,0,0,0,0,0,0,0,1,
scooby_state_405c2a|38|0 1,0,0,0,0,0,0,0,0,0,0,0,0,0,0,1,
scooby_state_405b03|44|1 1,0,0,0,0,0,0,0,0,0,0,0,0,0,0,1,
scooby_state_404b43|12|1 1,0,0,0,0,0,0,0,0,0,0,0,0,0,0,1,
scooby_state_404a00|40|0 1,0,0,0,0,0,0,0,0,0,0,0,0,0,0,1,
scooby_state_405c2a|14|0 1,0,0,0,0,0,0,0,0,0,0,0,0,0,0,1,
scooby_state_404533|53|1 1,0,0,0,0,0,0,0,0,0,0,0,0,0,0,1,
scooby_state_404a82|42|1 1,0,0,0,0,0,0,0,0,0,0,0,0,0,0,1,
scooby_state_404ac1|43|1 1,0,0,0,0,0,0,0,0,0,0,0,0,0,0,1,
scooby_state_405d00|52|1 1,0,0,0,0,0,0,0,0,0,0,0,0,0,0,1,
scooby_state_404b01|44|1 1,0,0,0,0,0,0,0,0,0,0,0,0,0,0,1,
scooby_state_405c2a|47|0 1,0,0,0,0,0,0,0,0,0,0,0,0,0,0,1,
scooby_state_404a42|41|1 1,0,0,0,0,0,0,0,0,0,0,0,0,0,0,1,
scooby_state_405bc0|47|0 1,0,0,0,0,0,0,0,0,0,0,0,0,0,0,1,
scooby_state_404b82|46|1 1,0,0,0,0,0,0,0,0,0,0,0,0,0,0,1,
scooby_state_404b43|32|1 1,0,0,0,0,0,0,0,0,0,0,0,0,0,0,1,
scooby_state_404bb2|9|1 1,0,0,0,0,0,0,0,0,0,0,0,0,0,0,1,
scooby_state_404b43|23|1 1,0,0,0,0,0,0,0,0,0,0,0,0,0,0,1,
scooby_state_405c2a|23|0 1,0,0,0,0,0,0,0,0,0,0,0,0,0,0,1,
scooby_state_404580|54|34 1,0,0,0,0,0,0,0,0,0,0,0,0,0,0,1,
scooby_state_405c2a|17|0 1,0,0,0,0,0,0,0,0,0,0,0,0,0,0,1,
scooby_state_40452b|47|1 1,0,0,0,0,0,0,0,0,0,0,0,0,0,0,1,
scooby_state_404533|21|1 1,0,0,0,0,0,0,0,0,0,0,0,0,0,0,1,
scooby_state_405c2a|33|0 1,0,0,0,0,0,0,0,0,0,0,0,0,0,0,1,
scooby_state_40452b|15|1 1,0,0,0,0,0,0,0,0,0,0,0,0,0,0,1,
scooby_state_405d6a|50|0 1,0,0,0,0,0,0,0,0,0,0,0,0,0,0,1,
scooby_state_405c2a|63|0 1,0,0,0,0,0,0,0,0,0,0,0,0,0,0,1,
scooby_state_404533|19|1 1,0,0,0,0,0,0,0,0,0,0,0,0,0,0,1,
scooby_state_40452b|57|1 1,0,0,0,0,0,0,0,0,0,0,0,0,0,0,1,
scooby_state_405d6a|41|0 1,0,0,0,0,0,0,0,0,0,0,0,0,0,0,1,
scooby_state_405c2a|48|0 1,0,0,0,0,0,0,0,0,0,0,0,0,0,0,1,
scooby_state_405d6a|35|0 1,0,0,0,0,0,0,0,0,0,0,0,0,0,0,1,
scooby_state_404b43|22|1 1,0,0,0,0,0,0,0,0,0,0,0,0,0,0,1,
scooby_state_405c2a|10|0 1,0,0,0,0,0,0,0,0,0,0,0,0,0,0,1,
scooby_state_405c2a|24|1 1,0,0,0,0,0,0,0,0,0,0,0,0,0,0,1,
scooby_state_404bb2|37|1 1,0,0,0,0,0,0,0,0,0,0,0,0,0,0,1,
scooby_state_404533|13|1 1,0,0,0,0,0,0,0,0,0,0,0,0,0,0,1,
scooby_state_405d82|54|1 1,0,0,0,0,0,0,0,0,0,0,0,0,0,0,1,
scooby_state_404bb2|50|1 1,0,0,0,0,0,0,0,0,0,0,0,0,0,0,1,
scooby_state_40452b|56|1 1,0,0,0,0,0,0,0,0,0,0,0,0,0,0,1,
scooby_state_404b43|26|1 1,0,0,0,0,0,0,0,0,0,0,0,0,0,0,1,
scooby_state_405d6a|6|0 1,0,0,0,0,0,0,0,0,0,0,0,0,0,0,1,
scooby_state_405c2a|25|1 1,0,0,0,0,0,0,0,0,0,0,0,0,0,0,1,
scooby_state_405d6a|52|0 1,0,0,0,0,0,0,0,0,0,0,0,0,0,0,1,
scooby_state_405c2a|62|0 1,0,0,0,0,0,0,0,0,0,0,0,0,0,0,1,
scooby_state_404b43|25|1 1,0,0,0,0,0,0,0,0,0,0,0,0,0,0,1,
scooby_state_404533|46|1 1,0,0,0,0,0,0,0,0,0,0,0,0,0,0,1,
scooby_state_40452b|16|1 1,0,0,0,0,0,0,0,0,0,0,0,0,0,0,1,
scooby_state_404533|26|1 1,0,0,0,0,0,0,0,0,0,0,0,0,0,0,1,
scooby_state_404bb2|51|1 1,0,0,0,0,0,0,0,0,0,0,0,0,0,0,1,
scooby_state_405d6a|56|0 1,0,0,0,0,0,0,0,0,0,0,0,0,0,0,1,
scooby_state_405c2a|56|0 1,0,0,0,0,0,0,0,0,0,0,0,0,0,0,1,
scooby_state_405c80|50|1 1,0,0,0,0,0,0,0,0,0,0,0,0,0,0,1,
scooby_state_404381|14|1 1,0,0,0,0,0,0,0,0,0,0,0,0,0,0,1,
scooby_state_405d6a|40|0 1,0,0,0,0,0,0,0,0,0,0,0,0,0,0,1,
scooby_state_404578|61|0 1,0,0,0,0,0,0,0,0,0,0,0,0,0,0,1,
scooby_state_404b43|11|1 1,0,0,0,0,0,0,0,0,0,0,0,0,0,0,1,
scooby_state_404350|13|-39 1,0,0,0,0,0,0,0,0,0,0,0,0,0,0,1,
scooby_state_405cc4|51|1 1,0,0,0,0,0,0,0,0,0,0,0,0,0,0,1,
scooby_state_405d6a|27|0 1,0,0,0,0,0,0,0,0,0,0,0,0,0,0,1,
scooby_state_404552|20|0 1,0,0,0,0,0,0,0,0,0,0,0,0,0,0,1,
scooby_state_40452b|23|1 1,0,0,0,0,0,0,0,0,0,0,0,0,0,0,1,
scooby_state_405c2a|54|0 1,0,0,0,0,0,0,0,0,0,0,0,0,0,0,1,
scooby_state_405c42|49|1 1,0,0,0,0,0,0,0,0,0,0,0,0,0,0,1,
scooby_state_405c2a|53|0 1,0,0,0,0,0,0,0,0,0,0,0,0,0,0,1,
scooby_state_40452b|20|1 1,0,0,0,0,0,0,0,0,0,0,0,0,0,0,1,
scooby_state_4043c2|15|1 1,0,0,0,0,0,0,0,0,0,0,0,0,0,0,1,
scooby_state_40452b|54|1 1,0,0,0,0,0,0,0,0,0,0,0,0,0,0,1,
scooby_state_404b43|18|1 1,0,0,0,0,0,0,0,0,0,0,0,0,0,0,1,
scooby_state_404bb2|57|1 1,0,0,0,0,0,0,0,0,0,0,0,0,0,0,1,
scooby_state_40452b|28|1 1,0,0,0,0,0,0,0,0,0,0,0,0,0,0,1,
scooby_state_404b43|39|1 1,0,0,0,0,0,0,0,0,0,0,0,0,0,0,1,
scooby_state_404533|23|1 1,0,0,0,0,0,0,0,0,0,0,0,0,0,0,1,
scooby_state_405c2a|28|0 1,0,0,0,0,0,0,0,0,0,0,0,0,0,0,1,
scooby_state_404533|57|1 1,0,0,0,0,0,0,0,0,0,0,0,0,0,0,1,
scooby_state_404533|61|1 1,0,0,0,0,0,0,0,0,0,0,0,0,0,0,1,
scooby_state_405c2a|50|0 1,0,0,0,0,0,0,0,0,0,0,0,0,0,0,1,
scooby_state_405c2a|33|1 1,0,0,0,0,0,0,0,0,0,0,0,0,0,0,1,
scooby_state_40452b|50|1 1,0,0,0,0,0,0,0,0,0,0,0,0,0,0,1,
scooby_state_404533|54|1 1,0,0,0,0,0,0,0,0,0,0,0,0,0,0,1,
scooby_state_405b80|46|1 1,0,0,0,0,0,0,0,0,0,0,0,0,0,0,1,
scooby_state_404533|25|1 1,0,0,0,0,0,0,0,0,0,0,0,0,0,0,1,
scooby_state_404442|17|1 1,0,0,0,0,0,0,0,0,0,0,0,0,0,0,1,
scooby_state_404483|18|1 1,0,0,0,0,0,0,0,0,0,0,0,0,0,0,1,
scooby_state_40452b|22|1 1,0,0,0,0,0,0,0,0,0,0,0,0,0,0,1,
scooby_state_404500|20|1 1,0,0,0,0,0,0,0,0,0,0,0,0,0,0,1,
scooby_state_405d6a|49|0 1,0,0,0,0,0,0,0,0,0,0,0,0,0,0,1,
scooby_state_404542|21|1 1,0,0,0,0,0,0,0,0,0,0,0,0,0,0,1,
scooby_state_404b43|15|1 1,0,0,0,0,0,0,0,0,0,0,0,0,0,0,1,
scooby_state_405d6a|44|0 1,0,0,0,0,0,0,0,0,0,0,0,0,0,0,1,
scooby_state_404533|27|1 1,0,0,0,0,0,0,0,0,0,0,0,0,0,0,1,
scooby_state_405d6a|26|0 1,0,0,0,0,0,0,0,0,0,0,0,0,0,0,1,
scooby_state_404580|22|1 1,0,0,0,0,0,0,0,0,0,0,0,0,0,0,1,
scooby_state_404533|44|1 1,0,0,0,0,0,0,0,0,0,0,0,0,0,0,1,
scooby_state_404533|12|1 1,0,0,0,0,0,0,0,0,0,0,0,0,0,0,1,
scooby_state_404bc3|47|1 1,0,0,0,0,0,0,0,0,0,0,0,0,0,0,1,
scooby_state_404ba3|6|0 0,0,0,0,0,0,0,0,0,0,0,0,0,0,1,1,
scooby_state_405c2a|51|0 1,0,0,0,0,0,0,0,0,0,0,0,0,0,0,1,
scooby_state_404b43|36|1 1,0,0,0,0,0,0,0,0,0,0,0,0,0,0,1,
scooby_state_404702|28|1 1,0,0,0,0,0,0,0,0,0,0,0,0,0,0,1,
scooby_state_404533|18|1 1,0,0,0,0,0,0,0,0,0,0,0,0,0,0,1,
scooby_state_404b43|30|1 1,0,0,0,0,0,0,0,0,0,0,0,0,0,0,1,
scooby_state_404b43|61|1 1,0,0,0,0,0,0,0,0,0,0,0,0,0,0,1,
scooby_state_404b43|57|1 1,0,0,0,0,0,0,0,0,0,0,0,0,0,0,1,
scooby_state_40452b|55|1 1,0,0,0,0,0,0,0,0,0,0,0,0,0,0,1,
scooby_state_405c2a|11|0 1,0,0,0,0,0,0,0,0,0,0,0,0,0,0,1,
scooby_state_404b43|43|1 1,0,0,0,0,0,0,0,0,0,0,0,0,0,0,1,
scooby_state_404533|14|1 1,0,0,0,0,0,0,0,0,0,0,0,0,0,0,1,
scooby_state_405c2a|9|0 1,0,0,0,0,0,0,0,0,0,0,0,0,0,0,1,
scooby_state_404533|24|1 1,0,0,0,0,0,0,0,0,0,0,0,0,0,0,1,

scooby_action_0_deg_dist 0,652,0,0,0,0,0,0,0,0,0,0,0,0,0,0,
scooby_action_12_deg_dist 0,552,0,0,0,0,0,0,0,0,0,0,0,0,0,0,
scooby_action_32_deg_dist 0,261,0,0,0,0,0,0,0,0,0,0,0,0,0,0,
scooby_action_3_deg_dist 0,647,6,0,0,0,0,0,0,0,0,0,0,0,0,0,
scooby_action_5_deg_dist 0,300,0,0,0,0,0,0,0,0,0,0,0,0,0,0,
scooby_action_1_deg_dist 0,91509,59279,0,145169,0,1548060,0,0,0,0,0,0,0,0,0,
scooby_action_30_deg_dist 0,290,0,0,0,0,0,0,0,0,0,0,0,0,0,0,
scooby_action_4_deg_dist 0,666,0,0,0,0,0,0,0,0,0,0,0,0,0,0,
scooby_action_-3_deg_dist 0,813,0,0,0,0,0,0,0,0,0,0,0,0,0,0,
scooby_action_10_deg_dist 0,633,0,0,0,0,0,0,0,0,0,0,0,0,0,0,
scooby_action_-1_deg_dist 0,601,0,0,0,0,0,0,0,0,0,0,0,0,0,0,
scooby_action_23_deg_dist 0,300,0,0,0,0,0,0,0,0,0,0,0,0,0,0,
scooby_action_-6_deg_dist 0,292,0,0,0,0,0,0,0,0,0,0,0,0,0,0,
scooby_action_11_deg_dist 0,293,0,0,0,0,0,0,0,0,0,0,0,0,0,0,
scooby_action_22_deg_dist 0,306,0,0,0,0,0,0,0,0,0,0,0,0,0,0,

scooby_track_called 1850629
scooby_track_same_address 3244
scooby_track_evict 1847129

scooby_reward_demand_called 1850629
scooby_reward_demand_pt_not_found 39581
scooby_reward_demand_pt_found 1811048
scooby_reward_demand_pt_found_total 1811048
scooby_reward_demand_has_reward 0
scooby_reward_train_called 6925
scooby_reward_assign_reward_called 1847383
scooby_reward_no_pref 652
scooby_reward_incorrect 6273
scooby_reward_correct_untimely 1651426
scooby_reward_correct_timely 159622
scooby_reward_out_of_bounds 29410
scooby_reward_tracker_hit 0

scooby_reward_none_low_bw 652
scooby_reward_none_high_bw 0
scooby_reward_incorrect_low_bw 6273
scooby_reward_incorrect_high_bw 0
scooby_reward_correct_untimely_low_bw 1651426
scooby_reward_correct_untimely_high_bw 0
scooby_reward_correct_timely_low_bw 159622
scooby_reward_correct_timely_high_bw 0
scooby_reward_out_of_bounds_low_bw 29410
scooby_reward_out_of_bounds_high_bw 0
scooby_reward_tracker_hit_low_bw 0
scooby_reward_tracker_hit_high_bw 0

scooby_reward_1 0,5190,1650828,157581,28669,0,
scooby_reward_3 0,106,165,69,7,0,
scooby_reward_4 0,125,99,122,14,0,
scooby_reward_5 0,81,91,110,18,0,
scooby_reward_10 0,57,1,519,56,0,
scooby_reward_11 0,53,0,176,64,0,
scooby_reward_12 0,51,0,181,61,0,
scooby_reward_22 0,42,0,151,113,0,
scooby_reward_23 0,47,0,152,101,0,
scooby_reward_30 0,40,0,117,133,0,
scooby_reward_32 0,36,0,96,129,0,
scooby_reward_-1 0,80,242,53,6,0,
scooby_reward_-3 0,294,0,295,13,0,
scooby_reward_-6 0,71,0,0,26,0,
scooby_reward_0 652,0,0,0,0,0,

scooby_train_called 1847128
scooby_train_compute_reward 6925

scooby_register_fill_called 1747947
scooby_register_fill_set 163816
scooby_register_fill_set_total 163816

scooby_register_prefetch_hit_called 5910772
scooby_register_prefetch_hit_set 1597158
scooby_register_prefetch_hit_set_total 1597158

scooby_pref_issue_scooby 9471573

learning_engine_featurewise.action.called 1850629
learning_engine_featurewise.action.explore 3376
learning_engine_featurewise.action.exploit 1847253
learning_engine_featurewise.action.fallback 0
learning_engine_featurewise.action.dyn_fallback_saved_bw 0
learning_engine_featurewise.action.dyn_fallback_saved_bw_acc 0
learning_engine_featurewise.action.index_1_explored 214
learning_engine_featurewise.action.index_1_exploited 1843803
learning_engine_featurewise.action.index_3_explored 241
learning_engine_featurewise.action.index_3_exploited 412
learning_engine_featurewise.action.index_4_explored 233
learning_engine_featurewise.action.index_4_exploited 433
learning_engine_featurewise.action.index_5_explored 215
learning_engine_featurewise.action.index_5_exploited 85
learning_engine_featurewise.action.index_10_explored 254
learning_engine_featurewise.action.index_10_exploited 379
learning_engine_featurewise.action.index_11_explored 218
learning_engine_featurewise.action.index_11_exploited 75
learning_engine_featurewise.action.index_12_explored 222
learning_engine_featurewise.action.index_12_exploited 330
learning_engine_featurewise.action.index_22_explored 237
learning_engine_featurewise.action.index_22_exploited 69
learning_engine_featurewise.action.index_23_explored 230
learning_engine_featurewise.action.index_23_exploited 70
learning_engine_featurewise.action.index_30_explored 223
learning_engine_featurewise.action.index_30_exploited 67
learning_engine_featurewise.action.index_32_explored 193
learning_engine_featurewise.action.index_32_exploited 68
learning_engine_featurewise.action.index_-1_explored 225
learning_engine_featurewise.action.index_-1_exploited 376
learning_engine_featurewise.action.index_-3_explored 230
learning_engine_featurewise.action.index_-3_exploited 583
learning_engine_featurewise.action.index_-6_explored 215
learning_engine_featurewise.action.index_-6_exploited 77
learning_engine_featurewise.action.index_0_explored 226
learning_engine_featurewise.action.index_0_exploited 426
learning_engine_featurewise.learn.called 1847128
learning_engine_featurewise.learn.su_skip_PC 0
learning_engine_featurewise.learn.su_skip_PC_Delta 0

learning_engine_featurewise.q_value_histogram.bucket_0 0
learning_engine_featurewise.q_value_histogram.bucket_1 0
learning_engine_featurewise.q_value_histogram.bucket_2 0
learning_engine_featurewise.q_value_histogram.bucket_3 1328
learning_engine_featurewise.q_value_histogram.bucket_4 3044
learning_engine_featurewise.q_value_histogram.bucket_5 2978
learning_engine_featurewise.q_value_histogram.bucket_6 1839903
learning_engine_featurewise.q_value_histogram.bucket_7 0

learning_engine_featurewise.consensus.total 1847253
learning_engine_featurewise.consensus.feature_align_PC 1843227
learning_engine_featurewise.consensus.feature_align_PC_ratio 1.00
learning_engine_featurewise.consensus.feature_align_PC_Delta 1845685
learning_engine_featurewise.consensus.feature_align_PC_Delta_ratio 1.00
learning_engine_featurewise.consensus.feature_align_all 1841659
learning_engine_featurewise.consensus.feature_align_all_ratio 1.00

learning_engine_featurewise.feature_PC_min_weight 1000000.00000000
learning_engine_featurewise.feature_PC_max_weight 0.00000000
learning_engine_featurewise.feature_PC_Delta_min_weight 1000000.00000000
learning_engine_featurewise.feature_PC_Delta_max_weight 0.00000000
unique_pcs 75
unique_pages 19263
unique_trigger_pcs 26
total_bitmaps_seen 0
unique_bitmaps_seen 0

scooby_bw_epochs 393492
scooby_bw_level_0 152097
scooby_bw_level_1 241394
scooby_bw_level_2 1
scooby_bw_level_3 0

scooby_ipc_epochs 0
scooby_ipc_level_0 0
scooby_ipc_level_1 0
scooby_ipc_level_2 0
scooby_ipc_level_3 0

scooby_cache_acc_epochs 97046
scooby_cache_acc_level_0 1
scooby_cache_acc_level_1 0
scooby_cache_acc_level_2 0
scooby_cache_acc_level_3 1
scooby_cache_acc_level_4 7
scooby_cache_acc_level_5 38
scooby_cache_acc_level_6 216
scooby_cache_acc_level_7 330
scooby_cache_acc_level_8 3317
scooby_cache_acc_level_9 93136

Channel_0_RQ_row_buffer_hit 119320
Channel_0_RQ_row_buffer_miss 758153
Channel_0_WQ_row_buffer_hit 492572
Channel_0_WQ_row_buffer_miss 383940
Channel_0_WQ_full 10
Channel_0_dbus_congested 1004753

avg_congested_cycle 11

DRAM_bw_pochs 393492
DRAM_bw_level_0 152097
DRAM_bw_level_1 241394
DRAM_bw_level_2 1
DRAM_bw_level_3 0
