*************************************************
   ChampSim Multicore Out-of-Order Simulator
   Last compiled: Feb  6 2025 20:33:19
*************************************************
parsing config file: /home/wzz/Pythia/config/pythia.ini

trace_0 /home/wzz/Pythia/traces/654.roms_s-293B.champsimtrace.xz
adding L2C_PREFETCHER: Scooby
Initialize SHIP state
warmup_instructions 40000000
simulation_instructions 100000000
champsim_seed 224
measure_ipc 0
measure_ipc_epoch 1000
measure_dram_bw 1
measure_dram_bw_epoch 256
measure_cache_acc 1
measure_cache_acc_epoch 1024
l1d_perfect 0
l2c_perfect 0
llc_perfect 0
l1d_semi_perfect 0
l2c_semi_perfect 0
llc_semi_perfect 0
semi_perfect_cache_page_buffer_size 64

num_cpus 1
cpu_freq 4000
dram_io_freq 2400
page_size 4096
block_size 64
max_read_per_cycle 8
max_fill_per_cycle 1
dram_channels 1
log2_dram_channels 0
dram_ranks 1
dram_banks 8
dram_rows 65536
dram_columns 128
dram_row_size 8
dram_size 4096
dram_pages 1048576

fetch_width 6
decode_width 6
exec_width 4
lq_width 2
sq_width 2
retire_width 4
scheduler_size 128
branch_mispredict_penalty 20
rob_size 256
lq_size 72
sq_size 56
num_instr_destinations_sparc 4
num_instr_destinations 2
num_instr_sources 4

itlb_set 16
itlb_way 8
itlb_rq_size 16
itlb_wq_size 16
itlb_pq_size 0
itlb_mshr_size 8
itlb_latency 1

dtlb_set 16
dtlb_way 4
dtlb_rq_size 16
dtlb_wq_size 16
dtlb_pq_size 0
dtlb_mshr_size 8
dtlb_latency 1

stlb_set 128
stlb_way 12
stlb_rq_size 32
stlb_wq_size 32
stlb_pq_size 0
stlb_mshr_size 16
stlb_latency 8

l1i_size 32
l1i_set 64
l1i_way 8
l1i_rq_size 64
l1i_wq_size 64
l1i_pq_size 8
l1i_mshr_size 8
l1i_latency 1

l1d_size 32
l1d_set 64
l1d_way 8
l1d_rq_size 64
l1d_wq_size 64
l1d_pq_size 8
l1d_mshr_size 16
l1d_latency 4

l2c_size 256
l2c_set 512
l2c_way 8
l2c_rq_size 32
l2c_wq_size 32
l2c_pq_size 32
l2c_mshr_size 32
l2c_latency 10

llc_size 2048
llc_set 2048
llc_way 16
llc_rq_size 32
llc_wq_size 32
llc_pq_size 32
llc_mshr_size 64
llc_latency 20

dram_channel_width 8
dram_wq_size 64
dram_rq_size 64
tRP 15
tRCD 15
tCAS 12.5
dram_dbus_turn_around_time 30
dram_write_high_wm 56
dram_write_low_wm 48
min_dram_writes_per_switch 16
dram_mtps 2400
dram_dbus_return_time 13

scooby_alpha 0.0065088
scooby_gamma 0.556301
scooby_epsilon 0.00182284
scooby_state_num_bits 10
scooby_max_states 1024
scooby_seed 200
scooby_policy EGreedy
scooby_learning_type SARSA
scooby_actions 1,3,4,5,10,11,12,22,23,30,32,-1,-3,-6,0,
scooby_max_actions 15
scooby_pt_size 256
scooby_st_size 64
scooby_max_pcs 5
scooby_max_offsets 5
scooby_max_deltas 5
scooby_reward_none -4
scooby_reward_incorrect -8
scooby_reward_correct_untimely 12
scooby_reward_correct_timely 20
scooby_brain_zero_init 0
scooby_enable_reward_all 0
scooby_enable_track_multiple 0
scooby_enable_reward_out_of_bounds 1
scooby_reward_out_of_bounds -12
scooby_state_type 1
scooby_state_hash_type 11
scooby_access_debug 0
scooby_print_access_debug 0
scooby_print_access_debug_pc deadbeef
scooby_print_access_debug_pc_count 0
scooby_print_trace 0
scooby_enable_state_action_stats 1
scooby_enable_reward_tracker_hit 0
scooby_reward_tracker_hit -2
scooby_enable_featurewise_engine 1
scooby_pref_degree 1
scooby_enable_dyn_degree 1
scooby_max_to_avg_q_thresholds 0.5,1,2,
scooby_dyn_degrees 1,2,4,4,
scooby_multi_deg_select_type 2
scooby_last_pref_offset_conf_thresholds 1,3,8,
scooby_dyn_degrees_type2 1,2,4,6,
scooby_action_tracker_size 2
scooby_high_bw_thresh 4
scooby_enable_hbw_reward 1
scooby_reward_hbw_correct_timely 20
scooby_reward_hbw_correct_untimely 12
scooby_reward_hbw_incorrect -14
scooby_reward_hbw_none -2
scooby_reward_hbw_out_of_bounds -12
scooby_reward_hbw_tracker_hit -2
scooby_last_pref_offset_conf_thresholds_hbw 1,3,8,
scooby_dyn_degrees_type2_hbw 1,2,4,6,

le_enable_trace 0
le_trace_interval 0
le_trace_file_name 
le_trace_state 0
le_enable_score_plot 0
le_plot_file_name 
le_plot_actions 
le_enable_action_trace 0
le_action_trace_interval 0
le_action_trace_name 
le_enable_action_plot 0

le_featurewise_active_features PC, PC_Delta
le_featurewise_num_tilings 3,3,
le_featurewise_num_tiles 128,128,
le_featurewise_hash_types 2,2,
le_featurewise_enable_tiling_offset 1,1,
le_featurewise_max_q_thresh 0.5
le_featurewise_enable_action_fallback 1
le_featurewise_feature_weights 1,1,
le_featurewise_enable_dynamic_weight 0
le_featurewise_weight_gradient 0.001
le_featurewise_disable_adjust_weight_all_features_align 1
le_featurewise_selective_update 0
le_featurewise_pooling_type 2
le_featurewise_enable_dyn_action_fallback 1
le_featurewise_bw_acc_check_level 1
le_featurewise_acc_thresh 2
le_featurewise_enable_trace 0
le_featurewise_trace_feature_type 0
le_featurewise_trace_feature 
le_featurewise_trace_interval 0
le_featurewise_trace_record_count 0
le_featurewise_trace_file_name 
le_featurewise_enable_score_plot 0
le_featurewise_plot_actions 
le_featurewise_plot_file_name 


Heartbeat CPU  0 instructions:    1000003 cycles:     442887 heartbeat IPC: 2.25792 cumulative IPC: 2.25792 (Simulation time: 0 hr 0 min 5 sec) 
Heartbeat CPU  0 instructions:    2000002 cycles:     884915 heartbeat IPC: 2.26230 cumulative IPC: 2.26011 (Simulation time: 0 hr 0 min 10 sec) 
Heartbeat CPU  0 instructions:    3000002 cycles:    1328287 heartbeat IPC: 2.25544 cumulative IPC: 2.25855 (Simulation time: 0 hr 0 min 15 sec) 
Heartbeat CPU  0 instructions:    4000000 cycles:    1808753 heartbeat IPC: 2.08131 cumulative IPC: 2.21147 (Simulation time: 0 hr 0 min 20 sec) 
Heartbeat CPU  0 instructions:    5000001 cycles:    2323592 heartbeat IPC: 1.94236 cumulative IPC: 2.15184 (Simulation time: 0 hr 0 min 27 sec) 
Heartbeat CPU  0 instructions:    6000000 cycles:    2766781 heartbeat IPC: 2.25637 cumulative IPC: 2.16859 (Simulation time: 0 hr 0 min 31 sec) 
Heartbeat CPU  0 instructions:    7000001 cycles:    3208823 heartbeat IPC: 2.26223 cumulative IPC: 2.18149 (Simulation time: 0 hr 0 min 36 sec) 
Heartbeat CPU  0 instructions:    8000000 cycles:    3652305 heartbeat IPC: 2.25488 cumulative IPC: 2.19040 (Simulation time: 0 hr 0 min 41 sec) 
Heartbeat CPU  0 instructions:    9000000 cycles:    4096072 heartbeat IPC: 2.25343 cumulative IPC: 2.19723 (Simulation time: 0 hr 0 min 46 sec) 
Heartbeat CPU  0 instructions:   10000002 cycles:    4538529 heartbeat IPC: 2.26011 cumulative IPC: 2.20336 (Simulation time: 0 hr 0 min 51 sec) 
Heartbeat CPU  0 instructions:   11000001 cycles:    5030919 heartbeat IPC: 2.03091 cumulative IPC: 2.18648 (Simulation time: 0 hr 0 min 57 sec) 
Heartbeat CPU  0 instructions:   12000000 cycles:    5532006 heartbeat IPC: 1.99566 cumulative IPC: 2.16919 (Simulation time: 0 hr 1 min 3 sec) 
Heartbeat CPU  0 instructions:   13000001 cycles:    5975275 heartbeat IPC: 2.25597 cumulative IPC: 2.17563 (Simulation time: 0 hr 1 min 7 sec) 
Heartbeat CPU  0 instructions:   14000003 cycles:    6419130 heartbeat IPC: 2.25299 cumulative IPC: 2.18098 (Simulation time: 0 hr 1 min 12 sec) 
Heartbeat CPU  0 instructions:   15000003 cycles:    6861752 heartbeat IPC: 2.25926 cumulative IPC: 2.18603 (Simulation time: 0 hr 1 min 17 sec) 
Heartbeat CPU  0 instructions:   16000000 cycles:    7304382 heartbeat IPC: 2.25922 cumulative IPC: 2.19047 (Simulation time: 0 hr 1 min 22 sec) 
Heartbeat CPU  0 instructions:   17000003 cycles:    7747385 heartbeat IPC: 2.25733 cumulative IPC: 2.19429 (Simulation time: 0 hr 1 min 27 sec) 
Heartbeat CPU  0 instructions:   18000003 cycles:    8252701 heartbeat IPC: 1.97896 cumulative IPC: 2.18110 (Simulation time: 0 hr 1 min 33 sec) 
Heartbeat CPU  0 instructions:   19000002 cycles:    8742404 heartbeat IPC: 2.04205 cumulative IPC: 2.17332 (Simulation time: 0 hr 1 min 39 sec) 
Heartbeat CPU  0 instructions:   20000000 cycles:    9185284 heartbeat IPC: 2.25794 cumulative IPC: 2.17740 (Simulation time: 0 hr 1 min 44 sec) 
Heartbeat CPU  0 instructions:   21000000 cycles:    9627624 heartbeat IPC: 2.26070 cumulative IPC: 2.18122 (Simulation time: 0 hr 1 min 49 sec) 
Heartbeat CPU  0 instructions:   22000002 cycles:   10070864 heartbeat IPC: 2.25612 cumulative IPC: 2.18452 (Simulation time: 0 hr 1 min 54 sec) 
Heartbeat CPU  0 instructions:   23000002 cycles:   10513682 heartbeat IPC: 2.25826 cumulative IPC: 2.18763 (Simulation time: 0 hr 1 min 59 sec) 
Heartbeat CPU  0 instructions:   24000000 cycles:   10958050 heartbeat IPC: 2.25038 cumulative IPC: 2.19017 (Simulation time: 0 hr 2 min 3 sec) 
Heartbeat CPU  0 instructions:   25000000 cycles:   11474682 heartbeat IPC: 1.93561 cumulative IPC: 2.17871 (Simulation time: 0 hr 2 min 9 sec) 
Heartbeat CPU  0 instructions:   26000003 cycles:   11950495 heartbeat IPC: 2.10167 cumulative IPC: 2.17564 (Simulation time: 0 hr 2 min 15 sec) 
Heartbeat CPU  0 instructions:   27000001 cycles:   12393782 heartbeat IPC: 2.25587 cumulative IPC: 2.17851 (Simulation time: 0 hr 2 min 20 sec) 
Heartbeat CPU  0 instructions:   28000000 cycles:   12836490 heartbeat IPC: 2.25882 cumulative IPC: 2.18128 (Simulation time: 0 hr 2 min 25 sec) 
Heartbeat CPU  0 instructions:   29000003 cycles:   13278817 heartbeat IPC: 2.26078 cumulative IPC: 2.18393 (Simulation time: 0 hr 2 min 30 sec) 
Heartbeat CPU  0 instructions:   30000003 cycles:   13722209 heartbeat IPC: 2.25534 cumulative IPC: 2.18624 (Simulation time: 0 hr 2 min 35 sec) 
Heartbeat CPU  0 instructions:   31000001 cycles:   14174662 heartbeat IPC: 2.21017 cumulative IPC: 2.18700 (Simulation time: 0 hr 2 min 40 sec) 
Heartbeat CPU  0 instructions:   32000000 cycles:   14696588 heartbeat IPC: 1.91598 cumulative IPC: 2.17738 (Simulation time: 0 hr 2 min 46 sec) 
Heartbeat CPU  0 instructions:   33000003 cycles:   15159932 heartbeat IPC: 2.15823 cumulative IPC: 2.17679 (Simulation time: 0 hr 2 min 51 sec) 
Heartbeat CPU  0 instructions:   34000002 cycles:   15602092 heartbeat IPC: 2.26162 cumulative IPC: 2.17920 (Simulation time: 0 hr 2 min 56 sec) 
Heartbeat CPU  0 instructions:   35000002 cycles:   16045487 heartbeat IPC: 2.25533 cumulative IPC: 2.18130 (Simulation time: 0 hr 3 min 1 sec) 
Heartbeat CPU  0 instructions:   36000000 cycles:   16489040 heartbeat IPC: 2.25452 cumulative IPC: 2.18327 (Simulation time: 0 hr 3 min 6 sec) 
Heartbeat CPU  0 instructions:   37000000 cycles:   16931322 heartbeat IPC: 2.26100 cumulative IPC: 2.18530 (Simulation time: 0 hr 3 min 11 sec) 
Heartbeat CPU  0 instructions:   38000003 cycles:   17391484 heartbeat IPC: 2.17315 cumulative IPC: 2.18498 (Simulation time: 0 hr 3 min 16 sec) 
Heartbeat CPU  0 instructions:   39000003 cycles:   17917662 heartbeat IPC: 1.90050 cumulative IPC: 2.17662 (Simulation time: 0 hr 3 min 22 sec) 
Heartbeat CPU  0 instructions:   40000000 cycles:   18368179 heartbeat IPC: 2.21967 cumulative IPC: 2.17768 (Simulation time: 0 hr 3 min 27 sec) 

Warmup complete CPU  0 instructions:   40000001 cycles:   18368192 (Simulation time: 0 hr 3 min 27 sec) 

Heartbeat CPU  0 instructions:   41000000 cycles:   19110923 heartbeat IPC: 1.34636 cumulative IPC: 1.34638 (Simulation time: 0 hr 3 min 33 sec) 
Heartbeat CPU  0 instructions:   42000000 cycles:   19854908 heartbeat IPC: 1.34411 cumulative IPC: 1.34525 (Simulation time: 0 hr 3 min 38 sec) 
Heartbeat CPU  0 instructions:   43000000 cycles:   20598145 heartbeat IPC: 1.34547 cumulative IPC: 1.34532 (Simulation time: 0 hr 3 min 44 sec) 
Heartbeat CPU  0 instructions:   44000000 cycles:   21340926 heartbeat IPC: 1.34629 cumulative IPC: 1.34556 (Simulation time: 0 hr 3 min 49 sec) 
Heartbeat CPU  0 instructions:   45000003 cycles:   22129829 heartbeat IPC: 1.26759 cumulative IPC: 1.32921 (Simulation time: 0 hr 3 min 55 sec) 
Heartbeat CPU  0 instructions:   46000001 cycles:   22994947 heartbeat IPC: 1.15591 cumulative IPC: 1.29681 (Simulation time: 0 hr 4 min 2 sec) 
Heartbeat CPU  0 instructions:   47000001 cycles:   23773798 heartbeat IPC: 1.28394 cumulative IPC: 1.29495 (Simulation time: 0 hr 4 min 7 sec) 
Heartbeat CPU  0 instructions:   48000000 cycles:   24517089 heartbeat IPC: 1.34537 cumulative IPC: 1.30105 (Simulation time: 0 hr 4 min 13 sec) 
Heartbeat CPU  0 instructions:   49000003 cycles:   25260902 heartbeat IPC: 1.34443 cumulative IPC: 1.30573 (Simulation time: 0 hr 4 min 19 sec) 
Heartbeat CPU  0 instructions:   50000003 cycles:   26004178 heartbeat IPC: 1.34540 cumulative IPC: 1.30959 (Simulation time: 0 hr 4 min 24 sec) 
Heartbeat CPU  0 instructions:   51000000 cycles:   26748127 heartbeat IPC: 1.34417 cumulative IPC: 1.31266 (Simulation time: 0 hr 4 min 30 sec) 
Heartbeat CPU  0 instructions:   52000000 cycles:   27553190 heartbeat IPC: 1.24214 cumulative IPC: 1.30648 (Simulation time: 0 hr 4 min 36 sec) 
Heartbeat CPU  0 instructions:   53000000 cycles:   28433916 heartbeat IPC: 1.13543 cumulative IPC: 1.29151 (Simulation time: 0 hr 4 min 42 sec) 
Heartbeat CPU  0 instructions:   54000000 cycles:   29176734 heartbeat IPC: 1.34622 cumulative IPC: 1.29527 (Simulation time: 0 hr 4 min 48 sec) 
Heartbeat CPU  0 instructions:   55000000 cycles:   29919928 heartbeat IPC: 1.34554 cumulative IPC: 1.29851 (Simulation time: 0 hr 4 min 53 sec) 
Heartbeat CPU  0 instructions:   56000000 cycles:   30663812 heartbeat IPC: 1.34430 cumulative IPC: 1.30128 (Simulation time: 0 hr 4 min 59 sec) 
Heartbeat CPU  0 instructions:   57000000 cycles:   31407624 heartbeat IPC: 1.34443 cumulative IPC: 1.30374 (Simulation time: 0 hr 5 min 4 sec) 
Heartbeat CPU  0 instructions:   58000002 cycles:   32150061 heartbeat IPC: 1.34692 cumulative IPC: 1.30606 (Simulation time: 0 hr 5 min 10 sec) 
Heartbeat CPU  0 instructions:   59000000 cycles:   32968088 heartbeat IPC: 1.22245 cumulative IPC: 1.30138 (Simulation time: 0 hr 5 min 16 sec) 
Heartbeat CPU  0 instructions:   60000000 cycles:   33824024 heartbeat IPC: 1.16831 cumulative IPC: 1.29401 (Simulation time: 0 hr 5 min 22 sec) 
Heartbeat CPU  0 instructions:   61000003 cycles:   34567373 heartbeat IPC: 1.34527 cumulative IPC: 1.29636 (Simulation time: 0 hr 5 min 28 sec) 
Heartbeat CPU  0 instructions:   62000003 cycles:   35310202 heartbeat IPC: 1.34620 cumulative IPC: 1.29855 (Simulation time: 0 hr 5 min 33 sec) 
Heartbeat CPU  0 instructions:   63000001 cycles:   36052706 heartbeat IPC: 1.34679 cumulative IPC: 1.30057 (Simulation time: 0 hr 5 min 38 sec) 
Heartbeat CPU  0 instructions:   64000000 cycles:   36796094 heartbeat IPC: 1.34519 cumulative IPC: 1.30237 (Simulation time: 0 hr 5 min 44 sec) 
Heartbeat CPU  0 instructions:   65000001 cycles:   37539462 heartbeat IPC: 1.34523 cumulative IPC: 1.30403 (Simulation time: 0 hr 5 min 49 sec) 
Heartbeat CPU  0 instructions:   66000003 cycles:   38374170 heartbeat IPC: 1.19803 cumulative IPC: 1.29961 (Simulation time: 0 hr 5 min 56 sec) 
Heartbeat CPU  0 instructions:   67000001 cycles:   39213746 heartbeat IPC: 1.19107 cumulative IPC: 1.29524 (Simulation time: 0 hr 6 min 2 sec) 
Heartbeat CPU  0 instructions:   68000000 cycles:   39956488 heartbeat IPC: 1.34636 cumulative IPC: 1.29700 (Simulation time: 0 hr 6 min 7 sec) 
Heartbeat CPU  0 instructions:   69000003 cycles:   40699410 heartbeat IPC: 1.34604 cumulative IPC: 1.29863 (Simulation time: 0 hr 6 min 13 sec) 
Heartbeat CPU  0 instructions:   70000001 cycles:   41442543 heartbeat IPC: 1.34565 cumulative IPC: 1.30014 (Simulation time: 0 hr 6 min 18 sec) 
Heartbeat CPU  0 instructions:   71000000 cycles:   42185641 heartbeat IPC: 1.34572 cumulative IPC: 1.30157 (Simulation time: 0 hr 6 min 24 sec) 
Heartbeat CPU  0 instructions:   72000000 cycles:   42935554 heartbeat IPC: 1.33349 cumulative IPC: 1.30254 (Simulation time: 0 hr 6 min 29 sec) 
Heartbeat CPU  0 instructions:   73000000 cycles:   43785654 heartbeat IPC: 1.17633 cumulative IPC: 1.29832 (Simulation time: 0 hr 6 min 36 sec) 
Heartbeat CPU  0 instructions:   74000000 cycles:   44611853 heartbeat IPC: 1.21036 cumulative IPC: 1.29555 (Simulation time: 0 hr 6 min 42 sec) 
Heartbeat CPU  0 instructions:   75000000 cycles:   45356506 heartbeat IPC: 1.34291 cumulative IPC: 1.29686 (Simulation time: 0 hr 6 min 47 sec) 
Heartbeat CPU  0 instructions:   76000000 cycles:   46099280 heartbeat IPC: 1.34630 cumulative IPC: 1.29818 (Simulation time: 0 hr 6 min 53 sec) 
Heartbeat CPU  0 instructions:   77000000 cycles:   46843171 heartbeat IPC: 1.34428 cumulative IPC: 1.29939 (Simulation time: 0 hr 6 min 58 sec) 
Heartbeat CPU  0 instructions:   78000000 cycles:   47587438 heartbeat IPC: 1.34360 cumulative IPC: 1.30051 (Simulation time: 0 hr 7 min 4 sec) 
Heartbeat CPU  0 instructions:   79000000 cycles:   48346973 heartbeat IPC: 1.31660 cumulative IPC: 1.30092 (Simulation time: 0 hr 7 min 9 sec) 
Heartbeat CPU  0 instructions:   80000000 cycles:   49201393 heartbeat IPC: 1.17038 cumulative IPC: 1.29730 (Simulation time: 0 hr 7 min 16 sec) 
Heartbeat CPU  0 instructions:   81000002 cycles:   50008945 heartbeat IPC: 1.23831 cumulative IPC: 1.29580 (Simulation time: 0 hr 7 min 22 sec) 
Heartbeat CPU  0 instructions:   82000003 cycles:   50752891 heartbeat IPC: 1.34418 cumulative IPC: 1.29691 (Simulation time: 0 hr 7 min 27 sec) 
Heartbeat CPU  0 instructions:   83000001 cycles:   51496232 heartbeat IPC: 1.34527 cumulative IPC: 1.29799 (Simulation time: 0 hr 7 min 33 sec) 
Heartbeat CPU  0 instructions:   84000000 cycles:   52239466 heartbeat IPC: 1.34547 cumulative IPC: 1.29904 (Simulation time: 0 hr 7 min 38 sec) 
Heartbeat CPU  0 instructions:   85000003 cycles:   52982126 heartbeat IPC: 1.34652 cumulative IPC: 1.30005 (Simulation time: 0 hr 7 min 44 sec) 
Heartbeat CPU  0 instructions:   86000001 cycles:   53754326 heartbeat IPC: 1.29500 cumulative IPC: 1.29994 (Simulation time: 0 hr 7 min 49 sec) 
Heartbeat CPU  0 instructions:   87000003 cycles:   54607228 heartbeat IPC: 1.17247 cumulative IPC: 1.29694 (Simulation time: 0 hr 7 min 56 sec) 
Heartbeat CPU  0 instructions:   88000000 cycles:   55404460 heartbeat IPC: 1.25434 cumulative IPC: 1.29603 (Simulation time: 0 hr 8 min 2 sec) 
Heartbeat CPU  0 instructions:   89000000 cycles:   56146762 heartbeat IPC: 1.34716 cumulative IPC: 1.29703 (Simulation time: 0 hr 8 min 7 sec) 
Heartbeat CPU  0 instructions:   90000002 cycles:   56889218 heartbeat IPC: 1.34688 cumulative IPC: 1.29799 (Simulation time: 0 hr 8 min 13 sec) 
Heartbeat CPU  0 instructions:   91000002 cycles:   57631983 heartbeat IPC: 1.34632 cumulative IPC: 1.29891 (Simulation time: 0 hr 8 min 18 sec) 
Heartbeat CPU  0 instructions:   92000000 cycles:   58374934 heartbeat IPC: 1.34598 cumulative IPC: 1.29978 (Simulation time: 0 hr 8 min 24 sec) 
Heartbeat CPU  0 instructions:   93000001 cycles:   59160262 heartbeat IPC: 1.27335 cumulative IPC: 1.29927 (Simulation time: 0 hr 8 min 29 sec) 
Heartbeat CPU  0 instructions:   94000000 cycles:   60026326 heartbeat IPC: 1.15465 cumulative IPC: 1.29627 (Simulation time: 0 hr 8 min 36 sec) 
Heartbeat CPU  0 instructions:   95000001 cycles:   60789776 heartbeat IPC: 1.30984 cumulative IPC: 1.29651 (Simulation time: 0 hr 8 min 42 sec) 
Heartbeat CPU  0 instructions:   96000000 cycles:   61533728 heartbeat IPC: 1.34417 cumulative IPC: 1.29733 (Simulation time: 0 hr 8 min 47 sec) 
Heartbeat CPU  0 instructions:   97000001 cycles:   62277790 heartbeat IPC: 1.34398 cumulative IPC: 1.29812 (Simulation time: 0 hr 8 min 52 sec) 
Heartbeat CPU  0 instructions:   98000001 cycles:   63020978 heartbeat IPC: 1.34555 cumulative IPC: 1.29891 (Simulation time: 0 hr 8 min 58 sec) 
Heartbeat CPU  0 instructions:   99000001 cycles:   63764011 heartbeat IPC: 1.34584 cumulative IPC: 1.29968 (Simulation time: 0 hr 9 min 3 sec) 
Heartbeat CPU  0 instructions:  100000000 cycles:   64569612 heartbeat IPC: 1.24131 cumulative IPC: 1.29866 (Simulation time: 0 hr 9 min 9 sec) 
Heartbeat CPU  0 instructions:  101000001 cycles:   65436293 heartbeat IPC: 1.15383 cumulative IPC: 1.29599 (Simulation time: 0 hr 9 min 16 sec) 
Heartbeat CPU  0 instructions:  102000001 cycles:   66180559 heartbeat IPC: 1.34361 cumulative IPC: 1.29674 (Simulation time: 0 hr 9 min 21 sec) 
Heartbeat CPU  0 instructions:  103000002 cycles:   66922366 heartbeat IPC: 1.34806 cumulative IPC: 1.29752 (Simulation time: 0 hr 9 min 27 sec) 
Heartbeat CPU  0 instructions:  104000000 cycles:   67666496 heartbeat IPC: 1.34385 cumulative IPC: 1.29822 (Simulation time: 0 hr 9 min 32 sec) 
Heartbeat CPU  0 instructions:  105000002 cycles:   68409476 heartbeat IPC: 1.34593 cumulative IPC: 1.29893 (Simulation time: 0 hr 9 min 38 sec) 
Heartbeat CPU  0 instructions:  106000000 cycles:   69152012 heartbeat IPC: 1.34673 cumulative IPC: 1.29963 (Simulation time: 0 hr 9 min 43 sec) 
Heartbeat CPU  0 instructions:  107000002 cycles:   69975862 heartbeat IPC: 1.21382 cumulative IPC: 1.29826 (Simulation time: 0 hr 9 min 49 sec) 
Heartbeat CPU  0 instructions:  108000000 cycles:   70835786 heartbeat IPC: 1.16289 cumulative IPC: 1.29604 (Simulation time: 0 hr 9 min 56 sec) 
Heartbeat CPU  0 instructions:  109000000 cycles:   71579447 heartbeat IPC: 1.34470 cumulative IPC: 1.29672 (Simulation time: 0 hr 10 min 1 sec) 
Heartbeat CPU  0 instructions:  110000000 cycles:   72322996 heartbeat IPC: 1.34490 cumulative IPC: 1.29738 (Simulation time: 0 hr 10 min 7 sec) 
Heartbeat CPU  0 instructions:  111000000 cycles:   73065538 heartbeat IPC: 1.34673 cumulative IPC: 1.29805 (Simulation time: 0 hr 10 min 12 sec) 
Heartbeat CPU  0 instructions:  112000000 cycles:   73808400 heartbeat IPC: 1.34615 cumulative IPC: 1.29870 (Simulation time: 0 hr 10 min 18 sec) 
Heartbeat CPU  0 instructions:  113000003 cycles:   74550949 heartbeat IPC: 1.34672 cumulative IPC: 1.29933 (Simulation time: 0 hr 10 min 23 sec) 
Heartbeat CPU  0 instructions:  114000001 cycles:   75394132 heartbeat IPC: 1.18598 cumulative IPC: 1.29766 (Simulation time: 0 hr 10 min 30 sec) 
Heartbeat CPU  0 instructions:  115000000 cycles:   76231033 heartbeat IPC: 1.19488 cumulative IPC: 1.29617 (Simulation time: 0 hr 10 min 36 sec) 
Heartbeat CPU  0 instructions:  116000000 cycles:   76974088 heartbeat IPC: 1.34580 cumulative IPC: 1.29680 (Simulation time: 0 hr 10 min 41 sec) 
Heartbeat CPU  0 instructions:  117000003 cycles:   77716066 heartbeat IPC: 1.34775 cumulative IPC: 1.29743 (Simulation time: 0 hr 10 min 47 sec) 
Heartbeat CPU  0 instructions:  118000001 cycles:   78459560 heartbeat IPC: 1.34500 cumulative IPC: 1.29802 (Simulation time: 0 hr 10 min 52 sec) 
Heartbeat CPU  0 instructions:  119000003 cycles:   79202835 heartbeat IPC: 1.34540 cumulative IPC: 1.29860 (Simulation time: 0 hr 10 min 58 sec) 
Heartbeat CPU  0 instructions:  120000000 cycles:   79955906 heartbeat IPC: 1.32789 cumulative IPC: 1.29896 (Simulation time: 0 hr 11 min 3 sec) 
Heartbeat CPU  0 instructions:  121000003 cycles:   80802678 heartbeat IPC: 1.18096 cumulative IPC: 1.29736 (Simulation time: 0 hr 11 min 10 sec) 
Heartbeat CPU  0 instructions:  122000002 cycles:   81634147 heartbeat IPC: 1.20269 cumulative IPC: 1.29612 (Simulation time: 0 hr 11 min 16 sec) 
Heartbeat CPU  0 instructions:  123000002 cycles:   82377762 heartbeat IPC: 1.34478 cumulative IPC: 1.29668 (Simulation time: 0 hr 11 min 21 sec) 
Heartbeat CPU  0 instructions:  124000000 cycles:   83121751 heartbeat IPC: 1.34410 cumulative IPC: 1.29723 (Simulation time: 0 hr 11 min 27 sec) 
Heartbeat CPU  0 instructions:  125000002 cycles:   83864871 heartbeat IPC: 1.34568 cumulative IPC: 1.29778 (Simulation time: 0 hr 11 min 33 sec) 
Heartbeat CPU  0 instructions:  126000000 cycles:   84607722 heartbeat IPC: 1.34616 cumulative IPC: 1.29832 (Simulation time: 0 hr 11 min 38 sec) 
Heartbeat CPU  0 instructions:  127000003 cycles:   85372464 heartbeat IPC: 1.30763 cumulative IPC: 1.29842 (Simulation time: 0 hr 11 min 44 sec) 
Heartbeat CPU  0 instructions:  128000000 cycles:   86227308 heartbeat IPC: 1.16980 cumulative IPC: 1.29680 (Simulation time: 0 hr 11 min 50 sec) 
Heartbeat CPU  0 instructions:  129000002 cycles:   87198295 heartbeat IPC: 1.02988 cumulative IPC: 1.29304 (Simulation time: 0 hr 11 min 57 sec) 
Heartbeat CPU  0 instructions:  130000003 cycles:   88112392 heartbeat IPC: 1.09398 cumulative IPC: 1.29043 (Simulation time: 0 hr 12 min 4 sec) 
Heartbeat CPU  0 instructions:  131000001 cycles:   89010839 heartbeat IPC: 1.11303 cumulative IPC: 1.28817 (Simulation time: 0 hr 12 min 11 sec) 
Heartbeat CPU  0 instructions:  132000000 cycles:   89893720 heartbeat IPC: 1.13265 cumulative IPC: 1.28625 (Simulation time: 0 hr 12 min 17 sec) 
Heartbeat CPU  0 instructions:  133000003 cycles:   90779252 heartbeat IPC: 1.12927 cumulative IPC: 1.28433 (Simulation time: 0 hr 12 min 24 sec) 
Heartbeat CPU  0 instructions:  134000003 cycles:   91665181 heartbeat IPC: 1.12876 cumulative IPC: 1.28245 (Simulation time: 0 hr 12 min 31 sec) 
Heartbeat CPU  0 instructions:  135000001 cycles:   92549190 heartbeat IPC: 1.13121 cumulative IPC: 1.28065 (Simulation time: 0 hr 12 min 37 sec) 
Heartbeat CPU  0 instructions:  136000000 cycles:   93432974 heartbeat IPC: 1.13150 cumulative IPC: 1.27890 (Simulation time: 0 hr 12 min 44 sec) 
Heartbeat CPU  0 instructions:  137000000 cycles:   94315713 heartbeat IPC: 1.13284 cumulative IPC: 1.27720 (Simulation time: 0 hr 12 min 50 sec) 
Heartbeat CPU  0 instructions:  138000001 cycles:   95197296 heartbeat IPC: 1.13432 cumulative IPC: 1.27556 (Simulation time: 0 hr 12 min 57 sec) 
Heartbeat CPU  0 instructions:  139000002 cycles:   96078645 heartbeat IPC: 1.13463 cumulative IPC: 1.27396 (Simulation time: 0 hr 13 min 3 sec) 
Heartbeat CPU  0 instructions:  140000000 cycles:   96960472 heartbeat IPC: 1.13401 cumulative IPC: 1.27239 (Simulation time: 0 hr 13 min 10 sec) 
Finished CPU 0 instructions: 100000000 cycles: 78592288 cumulative IPC: 1.27239 (Simulation time: 0 hr 13 min 10 sec) 

ChampSim completed all CPUs

[ROI Statistics]
Core_0_instructions 100000000
Core_0_cycles 78592288
Core_0_IPC 1.27239

Core_0_branch_prediction_accuracy 99.83802
Core_0_branch_MPKI 0.02705
Core_0_average_ROB_occupancy_at_mispredict 240.06802

Core_0_L1D_total_access 29258101
Core_0_L1D_total_hit 27985607
Core_0_L1D_total_miss 1272494
Core_0_L1D_loads 21343553
Core_0_L1D_load_hit 20513616
Core_0_L1D_load_miss 829937
Core_0_L1D_RFOs 7914548
Core_0_L1D_RFO_hit 7471991
Core_0_L1D_RFO_miss 442557
Core_0_L1D_prefetches 0
Core_0_L1D_prefetch_hit 0
Core_0_L1D_prefetch_miss 0
Core_0_L1D_writebacks 0
Core_0_L1D_writeback_hit 0
Core_0_L1D_writeback_miss 0
Core_0_L1D_prefetch_requested 0
Core_0_L1D_prefetch_dropped 0
Core_0_L1D_prefetch_issued 0
Core_0_L1D_prefetch_filled 0
Core_0_L1D_prefetch_useful 0
Core_0_L1D_prefetch_useless 0
Core_0_L1D_prefetch_late 0
Core_0_L1D_average_miss_latency 65.46026

Core_0_L1D_rq_access 33091932
Core_0_L1D_rq_forward 0
Core_0_L1D_rq_merged 11534940
Core_0_L1D_rq_to_cache 21556992
Core_0_L1D_rq_full 0

Core_0_L1D_wq_access 8625568
Core_0_L1D_wq_forward 0
Core_0_L1D_wq_merged 0
Core_0_L1D_wq_to_cache 8625568
Core_0_L1D_wq_full 17578

Core_0_L1D_pq_access 0
Core_0_L1D_pq_forward 0
Core_0_L1D_pq_merged 0
Core_0_L1D_pq_to_cache 0
Core_0_L1D_pq_full 0

Core_0_L1D_acc_epochs 93482
Core_0_L1D_acc_level_0 93482
Core_0_L1D_acc_level_1 0
Core_0_L1D_acc_level_2 0
Core_0_L1D_acc_level_3 0
Core_0_L1D_acc_level_4 0
Core_0_L1D_acc_level_5 0
Core_0_L1D_acc_level_6 0
Core_0_L1D_acc_level_7 0
Core_0_L1D_acc_level_8 0
Core_0_L1D_acc_level_9 0

Core_0_L1I_total_access 24765253
Core_0_L1I_total_hit 24765080
Core_0_L1I_total_miss 173
Core_0_L1I_loads 24765253
Core_0_L1I_load_hit 24765080
Core_0_L1I_load_miss 173
Core_0_L1I_RFOs 0
Core_0_L1I_RFO_hit 0
Core_0_L1I_RFO_miss 0
Core_0_L1I_prefetches 0
Core_0_L1I_prefetch_hit 0
Core_0_L1I_prefetch_miss 0
Core_0_L1I_writebacks 0
Core_0_L1I_writeback_hit 0
Core_0_L1I_writeback_miss 0
Core_0_L1I_prefetch_requested 0
Core_0_L1I_prefetch_dropped 0
Core_0_L1I_prefetch_issued 0
Core_0_L1I_prefetch_filled 0
Core_0_L1I_prefetch_useful 0
Core_0_L1I_prefetch_useless 0
Core_0_L1I_prefetch_late 0
Core_0_L1I_average_miss_latency 244.91908

Core_0_L1I_rq_access 100000000
Core_0_L1I_rq_forward 0
Core_0_L1I_rq_merged 75234662
Core_0_L1I_rq_to_cache 24765338
Core_0_L1I_rq_full 0

Core_0_L1I_wq_access 0
Core_0_L1I_wq_forward 0
Core_0_L1I_wq_merged 0
Core_0_L1I_wq_to_cache 0
Core_0_L1I_wq_full 0

Core_0_L1I_pq_access 0
Core_0_L1I_pq_forward 0
Core_0_L1I_pq_merged 0
Core_0_L1I_pq_to_cache 0
Core_0_L1I_pq_full 0

Core_0_L1I_acc_epochs 93482
Core_0_L1I_acc_level_0 93482
Core_0_L1I_acc_level_1 0
Core_0_L1I_acc_level_2 0
Core_0_L1I_acc_level_3 0
Core_0_L1I_acc_level_4 0
Core_0_L1I_acc_level_5 0
Core_0_L1I_acc_level_6 0
Core_0_L1I_acc_level_7 0
Core_0_L1I_acc_level_8 0
Core_0_L1I_acc_level_9 0

Core_0_L2C_total_access 5882557
Core_0_L2C_total_hit 4818651
Core_0_L2C_total_miss 1063906
Core_0_L2C_loads 830064
Core_0_L2C_load_hit 806710
Core_0_L2C_load_miss 23354
Core_0_L2C_RFOs 442557
Core_0_L2C_RFO_hit 307
Core_0_L2C_RFO_miss 442250
Core_0_L2C_prefetches 4121049
Core_0_L2C_prefetch_hit 3524113
Core_0_L2C_prefetch_miss 596936
Core_0_L2C_writebacks 488887
Core_0_L2C_writeback_hit 487521
Core_0_L2C_writeback_miss 1366
Core_0_L2C_prefetch_requested 5660041
Core_0_L2C_prefetch_dropped 3624
Core_0_L2C_prefetch_issued 5656417
Core_0_L2C_prefetch_filled 801950
Core_0_L2C_prefetch_useful 764596
Core_0_L2C_prefetch_useless 37074
Core_0_L2C_prefetch_late 5725
Core_0_L2C_average_miss_latency 134.85245

Core_0_L2C_rq_access 1272667
Core_0_L2C_rq_forward 0
Core_0_L2C_rq_merged 0
Core_0_L2C_rq_to_cache 1272621
Core_0_L2C_rq_full 0

Core_0_L2C_wq_access 488887
Core_0_L2C_wq_forward 165
Core_0_L2C_wq_merged 0
Core_0_L2C_wq_to_cache 488887
Core_0_L2C_wq_full 0

Core_0_L2C_pq_access 5656417
Core_0_L2C_pq_forward 0
Core_0_L2C_pq_merged 23469
Core_0_L2C_pq_to_cache 5632829
Core_0_L2C_pq_full 0

Core_0_L2C_acc_epochs 93482
Core_0_L2C_acc_level_0 303
Core_0_L2C_acc_level_1 3543
Core_0_L2C_acc_level_2 4526
Core_0_L2C_acc_level_3 5278
Core_0_L2C_acc_level_4 5915
Core_0_L2C_acc_level_5 5465
Core_0_L2C_acc_level_6 6896
Core_0_L2C_acc_level_7 6864
Core_0_L2C_acc_level_8 11798
Core_0_L2C_acc_level_9 42894

Core_0_LLC_total_access 1508125
Core_0_LLC_total_hit 880996
Core_0_LLC_total_miss 627129
Core_0_LLC_loads 17635
Core_0_LLC_load_hit 6800
Core_0_LLC_load_miss 10835
Core_0_LLC_RFOs 442248
Core_0_LLC_RFO_hit 272961
Core_0_LLC_RFO_miss 169287
Core_0_LLC_prefetches 602657
Core_0_LLC_prefetch_hit 277133
Core_0_LLC_prefetch_miss 325524
Core_0_LLC_writebacks 445585
Core_0_LLC_writeback_hit 324102
Core_0_LLC_writeback_miss 121483
Core_0_LLC_prefetch_requested 0
Core_0_LLC_prefetch_dropped 0
Core_0_LLC_prefetch_issued 0
Core_0_LLC_prefetch_filled 420177
Core_0_LLC_prefetch_useful 5243
Core_0_LLC_prefetch_useless 385320
Core_0_LLC_prefetch_late 0
Core_0_LLC_average_miss_latency 177.73677

Core_0_LLC_rq_access 459883
Core_0_LLC_rq_forward 0
Core_0_LLC_rq_merged 0
Core_0_LLC_rq_to_cache 459883
Core_0_LLC_rq_full 0

Core_0_LLC_wq_access 445585
Core_0_LLC_wq_forward 0
Core_0_LLC_wq_merged 0
Core_0_LLC_wq_to_cache 445585
Core_0_LLC_wq_full 0

Core_0_LLC_pq_access 807675
Core_0_LLC_pq_forward 0
Core_0_LLC_pq_merged 0
Core_0_LLC_pq_to_cache 807675
Core_0_LLC_pq_full 0

Core_0_LLC_acc_epochs 94688
Core_0_LLC_acc_level_0 92472
Core_0_LLC_acc_level_1 342
Core_0_LLC_acc_level_2 395
Core_0_LLC_acc_level_3 335
Core_0_LLC_acc_level_4 180
Core_0_LLC_acc_level_5 89
Core_0_LLC_acc_level_6 55
Core_0_LLC_acc_level_7 31
Core_0_LLC_acc_level_8 32
Core_0_LLC_acc_level_9 757

Core_0_major_page_fault 0
Core_0_minor_page_fault 16705

scooby_st_lookup 1111633
scooby_st_hit 1091824
scooby_st_evict 19745
scooby_st_insert 19809
scooby_st_streaming 0

scooby_predict_called 1111633
scooby_predict_out_of_bounds 17600
scooby_predict_action_1 1091168
scooby_predict_issue_action_1 1087748
scooby_predict_hit_action_1 3420
scooby_predict_out_of_bounds_action_1 17147
scooby_predict_action_3 172
scooby_predict_issue_action_3 170
scooby_predict_hit_action_3 2
scooby_predict_out_of_bounds_action_3 7
scooby_predict_action_4 1315
scooby_predict_issue_action_4 1311
scooby_predict_hit_action_4 4
scooby_predict_out_of_bounds_action_4 84
scooby_predict_action_5 122
scooby_predict_issue_action_5 120
scooby_predict_hit_action_5 2
scooby_predict_out_of_bounds_action_5 13
scooby_predict_action_10 124
scooby_predict_issue_action_10 123
scooby_predict_hit_action_10 1
scooby_predict_out_of_bounds_action_10 30
scooby_predict_action_11 109
scooby_predict_issue_action_11 107
scooby_predict_hit_action_11 2
scooby_predict_out_of_bounds_action_11 24
scooby_predict_action_12 118
scooby_predict_issue_action_12 116
scooby_predict_hit_action_12 2
scooby_predict_out_of_bounds_action_12 25
scooby_predict_action_22 84
scooby_predict_issue_action_22 84
scooby_predict_hit_action_22 0
scooby_predict_out_of_bounds_action_22 63
scooby_predict_action_23 75
scooby_predict_issue_action_23 74
scooby_predict_hit_action_23 1
scooby_predict_out_of_bounds_action_23 65
scooby_predict_action_30 87
scooby_predict_issue_action_30 85
scooby_predict_hit_action_30 2
scooby_predict_out_of_bounds_action_30 62
scooby_predict_action_32 57
scooby_predict_issue_action_32 56
scooby_predict_hit_action_32 1
scooby_predict_out_of_bounds_action_32 63
scooby_predict_action_-1 216
scooby_predict_issue_action_-1 89
scooby_predict_hit_action_-1 127
scooby_predict_out_of_bounds_action_-1 3
scooby_predict_action_-3 128
scooby_predict_issue_action_-3 7
scooby_predict_hit_action_-3 121
scooby_predict_out_of_bounds_action_-3 7
scooby_predict_action_-6 114
scooby_predict_issue_action_-6 8
scooby_predict_hit_action_-6 106
scooby_predict_out_of_bounds_action_-6 7
scooby_predict_action_0 144
scooby_predict_issue_action_0 0
scooby_predict_hit_action_0 0
scooby_predict_out_of_bounds_action_0 0
scooby_predict_multi_deg_called 1029922
scooby_predict_predicted 5660041
scooby_predict_multi_deg 4569943
scooby_predict_multi_deg_2 1013177
scooby_predict_multi_deg_3 959164
scooby_predict_multi_deg_4 942717
scooby_predict_multi_deg_5 835413
scooby_predict_multi_deg_6 819472
scooby_predict_multi_deg_7 0
scooby_predict_multi_deg_8 0
scooby_predict_multi_deg_9 0
scooby_predict_multi_deg_10 0
scooby_predict_multi_deg_11 0
scooby_predict_multi_deg_12 0
scooby_predict_multi_deg_13 0
scooby_predict_multi_deg_14 0
scooby_predict_multi_deg_15 0
scooby_predict_multi_deg_16 0

scooby_selected_deg_1 60176
scooby_selected_deg_2 37841
scooby_selected_deg_3 0
scooby_selected_deg_4 93399
scooby_selected_deg_5 0
scooby_selected_deg_6 898682
scooby_selected_deg_7 0
scooby_selected_deg_8 0
scooby_selected_deg_9 0
scooby_selected_deg_10 0
scooby_selected_deg_11 0
scooby_selected_deg_12 0
scooby_selected_deg_13 0
scooby_selected_deg_14 0
scooby_selected_deg_15 0
scooby_selected_deg_16 0

scooby_state_43a680|15|1 778,0,0,0,0,0,0,0,0,0,0,0,1,0,0,779,
scooby_state_43a680|4|1 777,0,0,0,0,0,0,1,1,0,0,0,0,0,0,779,
scooby_state_43a688|32|1 777,1,0,0,0,0,0,1,0,0,0,0,0,0,0,779,
scooby_state_43a688|44|1 778,0,0,0,0,0,0,0,1,0,0,0,0,0,0,779,
scooby_state_43a688|31|1 779,0,0,0,0,0,0,0,0,0,0,0,0,0,0,779,
scooby_state_43a680|0|0 778,0,0,0,0,0,0,0,0,0,0,0,1,0,0,779,
scooby_state_43a680|63|1 777,0,0,0,0,0,0,1,0,0,1,0,0,0,0,779,
scooby_state_43a680|61|1 777,0,0,0,0,0,0,0,0,0,0,0,1,0,1,779,
scooby_state_43a680|2|1 776,0,0,0,0,0,0,1,0,1,0,0,1,0,0,779,
scooby_state_43a688|22|1 778,0,0,0,0,0,0,0,0,0,0,0,0,1,0,779,
scooby_state_43a688|20|1 779,0,0,0,0,0,0,0,0,0,0,0,0,0,0,779,
scooby_state_43a688|33|1 779,0,0,0,0,0,0,0,0,0,0,0,0,0,0,779,
scooby_state_43a688|21|1 776,1,0,1,0,0,0,0,0,0,0,0,0,0,1,779,
scooby_state_43a688|34|1 775,0,0,0,0,0,0,1,1,0,1,1,0,0,0,779,
scooby_state_43a680|57|1 777,0,0,0,0,1,0,0,0,0,0,0,0,0,1,779,
scooby_state_43a688|35|1 778,0,0,0,0,0,1,0,0,0,0,0,0,0,0,779,
scooby_state_43a688|37|1 778,1,0,0,0,0,0,0,0,0,0,0,0,0,0,779,
scooby_state_43a688|24|1 778,0,0,0,0,0,0,0,0,0,0,0,0,1,0,779,
scooby_state_43a688|49|1 777,0,0,0,0,1,0,0,0,0,0,1,0,0,0,779,
scooby_state_43a680|18|1 776,0,1,0,0,1,1,0,0,0,0,0,0,0,0,779,
scooby_state_43a680|9|1 776,1,0,0,1,0,0,0,0,0,0,0,0,0,1,779,
scooby_state_43a688|29|1 773,0,1,0,1,1,0,0,0,0,0,0,0,2,1,779,
scooby_state_43a688|28|1 777,0,0,0,0,0,0,1,0,1,0,0,0,0,0,779,
scooby_state_43a680|59|1 776,0,0,0,0,0,1,1,0,0,1,0,0,0,0,779,
scooby_state_43a680|8|1 776,0,0,0,0,0,0,0,1,1,0,1,0,0,0,779,
scooby_state_43a688|47|1 779,0,0,0,0,0,0,0,0,0,0,0,0,0,0,779,
scooby_state_43a680|3|1 777,0,0,1,0,0,1,0,0,0,0,0,0,0,0,779,
scooby_state_43a680|1|1 778,0,0,0,0,0,0,0,1,0,0,0,0,0,0,779,
scooby_state_43a680|6|1 775,0,0,0,0,2,1,0,0,0,0,0,1,0,0,779,
scooby_state_43a680|13|1 777,0,0,0,0,0,0,0,0,1,1,0,0,0,0,779,
scooby_state_43a680|19|1 779,0,0,0,0,0,0,0,0,0,0,0,0,0,0,779,
scooby_state_43a680|56|1 779,0,0,0,0,0,0,0,0,0,0,0,0,0,0,779,
scooby_state_43a688|23|1 779,0,0,0,0,0,0,0,0,0,0,0,0,0,0,779,
scooby_state_43a680|58|1 776,1,0,0,0,0,0,2,0,0,0,0,0,0,0,779,
scooby_state_43a688|43|1 779,0,0,0,0,0,0,0,0,0,0,0,0,0,0,779,
scooby_state_43a680|62|1 779,0,0,0,0,0,0,0,0,0,0,0,0,0,0,779,
scooby_state_43a680|60|1 779,0,0,0,0,0,0,0,0,0,0,0,0,0,0,779,
scooby_state_43a680|14|1 778,0,0,0,1,0,0,0,0,0,0,0,0,0,0,779,
scooby_state_43a688|30|1 777,0,1,1,0,0,0,0,0,0,0,0,0,0,0,779,
scooby_state_43a688|45|1 778,0,0,0,0,0,0,0,0,0,0,0,0,0,1,779,
scooby_state_43a680|16|1 778,0,0,0,0,0,0,0,0,0,0,1,0,0,0,779,
scooby_state_43a688|39|1 778,0,0,0,0,0,0,0,0,0,0,0,1,0,0,779,
scooby_state_43a680|5|1 777,0,0,0,0,0,0,1,0,0,0,1,0,0,0,779,
scooby_state_43a680|55|1 777,0,0,1,0,0,0,0,0,0,0,0,0,0,1,779,
scooby_state_43a688|26|1 777,0,0,0,1,0,0,0,0,1,0,0,0,0,0,779,
scooby_state_43a688|25|1 779,0,0,0,0,0,0,0,0,0,0,0,0,0,0,779,
scooby_state_43a688|42|1 778,0,0,1,0,0,0,0,0,0,0,0,0,0,0,779,
scooby_state_43a680|11|1 777,0,1,0,1,0,0,0,0,0,0,0,0,0,0,779,
scooby_state_43a688|46|1 773,0,0,0,0,1,2,0,0,1,0,0,0,1,1,779,
scooby_state_43a688|41|1 777,0,0,0,0,0,0,0,1,0,1,0,0,0,0,779,
scooby_state_43a688|48|1 777,0,0,1,0,0,0,1,0,0,0,0,0,0,0,779,
scooby_state_43a680|17|1 777,0,1,0,0,0,0,0,0,1,0,0,0,0,0,779,
scooby_state_43a688|27|1 779,0,0,0,0,0,0,0,0,0,0,0,0,0,0,779,
scooby_state_43a680|10|1 777,0,0,1,0,0,0,0,0,0,0,0,1,0,0,779,
scooby_state_43a688|40|1 778,0,1,0,0,0,0,0,0,0,0,0,0,0,0,779,
scooby_state_43a680|12|1 779,0,0,0,0,0,0,0,0,0,0,0,0,0,0,779,
scooby_state_43a688|38|1 777,0,0,0,0,0,0,1,0,0,0,0,0,0,1,779,
scooby_state_43a680|7|1 777,0,0,0,0,0,0,1,0,0,1,0,0,0,0,779,
scooby_state_43a688|36|1 776,0,0,0,0,0,0,1,1,1,0,0,0,0,0,779,
scooby_state_43a680|26|1 760,0,0,0,0,0,0,1,0,0,0,0,0,0,0,761,
scooby_state_43a146|27|1 760,0,0,0,0,0,0,0,0,0,0,0,0,0,0,760,
scooby_state_43a146|26|1 759,0,0,0,0,0,0,0,0,0,1,0,0,0,0,760,
scooby_state_43a0fd|26|1 760,0,0,0,0,0,0,0,0,0,0,0,0,0,0,760,
scooby_state_43a0ef|40|1 760,0,0,0,0,0,0,0,0,0,0,0,0,0,0,760,
scooby_state_43a0d9|35|1 759,0,0,0,0,0,0,0,0,1,0,0,0,0,0,760,
scooby_state_43a0ef|48|1 760,0,0,0,0,0,0,0,0,0,0,0,0,0,0,760,
scooby_state_43a0cf|13|1 759,0,0,0,0,0,0,0,1,0,0,0,0,0,0,760,
scooby_state_43a146|28|1 758,0,0,0,0,0,0,1,1,0,0,0,0,0,0,760,
scooby_state_43a103|58|1 759,0,0,0,0,0,0,0,0,0,0,0,1,0,0,760,
scooby_state_43a158|45|1 760,0,0,0,0,0,0,0,0,0,0,0,0,0,0,760,
scooby_state_43a146|48|1 759,0,1,0,0,0,0,0,0,0,0,0,0,0,0,760,
scooby_state_43a680|48|1 760,0,0,0,0,0,0,0,0,0,0,0,0,0,0,760,
scooby_state_43a103|37|1 758,0,0,0,1,1,0,0,0,0,0,0,0,0,0,760,
scooby_state_43a0fd|6|1 759,0,0,0,0,0,0,0,0,0,0,0,0,0,1,760,
scooby_state_43a0cf|21|1 759,0,0,0,0,0,0,0,0,0,1,0,0,0,0,760,
scooby_state_43a0fd|2|1 760,0,0,0,0,0,0,0,0,0,0,0,0,0,0,760,
scooby_state_43a0ef|41|1 757,0,1,1,0,1,0,0,0,0,0,0,0,0,0,760,
scooby_state_43a0c0|42|1 757,0,0,0,0,0,0,0,0,0,2,0,0,1,0,760,
scooby_state_43a0fd|7|1 759,0,0,0,0,0,0,0,0,0,1,0,0,0,0,760,
scooby_state_43a158|27|1 758,0,0,0,1,0,1,0,0,0,0,0,0,0,0,760,
scooby_state_43a0c0|52|1 759,0,0,0,0,0,0,0,0,0,0,1,0,0,0,760,
scooby_state_43a0cf|6|1 759,0,0,0,0,0,0,0,1,0,0,0,0,0,0,760,
scooby_state_43a0d9|34|1 757,1,0,0,0,0,0,0,0,0,0,0,1,0,1,760,
scooby_state_43a0ef|38|1 759,0,0,0,0,0,0,0,0,0,0,0,1,0,0,760,
scooby_state_43a103|35|1 759,1,0,0,0,0,0,0,0,0,0,0,0,0,0,760,
scooby_state_43a146|36|1 758,0,0,0,0,0,0,0,0,0,1,0,0,0,1,760,
scooby_state_43a146|45|1 760,0,0,0,0,0,0,0,0,0,0,0,0,0,0,760,
scooby_state_43a103|39|1 759,0,0,0,0,0,0,0,0,0,0,0,0,0,1,760,
scooby_state_43a0d9|36|1 759,0,0,0,0,0,0,0,0,1,0,0,0,0,0,760,
scooby_state_43a103|36|1 760,0,0,0,0,0,0,0,0,0,0,0,0,0,0,760,
scooby_state_43a146|24|1 759,1,0,0,0,0,0,0,0,0,0,0,0,0,0,760,
scooby_state_43a0fd|9|1 759,0,0,0,0,0,0,0,0,0,1,0,0,0,0,760,
scooby_state_43a0ef|39|1 759,0,1,0,0,0,0,0,0,0,0,0,0,0,0,760,
scooby_state_43a103|34|1 758,0,1,0,0,0,0,0,0,0,0,0,1,0,0,760,
scooby_state_43a158|21|1 758,0,1,0,0,0,0,0,0,1,0,0,0,0,0,760,
scooby_state_43a103|33|1 758,1,0,0,0,0,0,0,1,0,0,0,0,0,0,760,
scooby_state_43a158|22|1 760,0,0,0,0,0,0,0,0,0,0,0,0,0,0,760,
scooby_state_43a0d9|33|1 758,0,0,0,0,0,0,1,0,0,1,0,0,0,0,760,
scooby_state_43a158|33|1 757,0,1,0,0,0,1,0,0,0,0,0,1,0,0,760,
scooby_state_43a688|16|1 758,0,0,0,0,0,0,0,1,0,0,0,0,0,1,760,
scooby_state_43a0cf|25|1 759,0,0,0,0,0,0,0,0,0,1,0,0,0,0,760,
scooby_state_43a146|35|1 757,0,1,1,0,0,0,0,0,0,0,1,0,0,0,760,
scooby_state_43a0d9|39|1 759,0,0,0,0,0,0,0,0,0,0,1,0,0,0,760,
scooby_state_43a0c0|40|1 757,0,0,1,0,0,0,0,0,1,1,0,0,0,0,760,
scooby_state_43a103|46|1 760,0,0,0,0,0,0,0,0,0,0,0,0,0,0,760,
scooby_state_43a0fd|18|1 759,0,0,0,0,0,0,0,0,0,0,0,1,0,0,760,
scooby_state_43a0cf|10|1 757,0,0,0,0,0,0,0,0,0,1,1,1,0,0,760,
scooby_state_43a146|32|1 760,0,0,0,0,0,0,0,0,0,0,0,0,0,0,760,
scooby_state_43a0d9|50|1 758,0,0,0,0,0,0,1,1,0,0,0,0,0,0,760,
scooby_state_43a0cf|2|1 758,0,0,0,0,0,1,0,0,0,0,1,0,0,0,760,
scooby_state_43a0ef|43|1 759,0,0,0,0,0,0,0,0,0,0,0,0,1,0,760,
scooby_state_43a0cf|7|1 759,0,0,0,0,0,1,0,0,0,0,0,0,0,0,760,
scooby_state_43a0d9|38|1 759,1,0,0,0,0,0,0,0,0,0,0,0,0,0,760,
scooby_state_43a158|34|1 760,0,0,0,0,0,0,0,0,0,0,0,0,0,0,760,
scooby_state_43a0cf|11|1 757,0,1,0,0,0,0,0,0,0,1,0,0,0,1,760,
scooby_state_43a0c0|63|1 759,0,0,0,0,0,0,0,1,0,0,0,0,0,0,760,
scooby_state_43a0c0|57|1 756,0,0,1,2,0,0,0,0,0,1,0,0,0,0,760,
scooby_state_43a103|57|1 759,0,0,0,0,0,1,0,0,0,0,0,0,0,0,760,
scooby_state_43a158|41|1 757,0,0,0,0,1,0,0,2,0,0,0,0,0,0,760,
scooby_state_43a146|29|1 759,0,0,1,0,0,0,0,0,0,0,0,0,0,0,760,
scooby_state_43a103|32|1 758,1,0,0,0,0,0,0,0,0,1,0,0,0,0,760,
scooby_state_43a0d9|56|1 759,0,0,0,1,0,0,0,0,0,0,0,0,0,0,760,
scooby_state_43a0ef|36|1 759,0,0,1,0,0,0,0,0,0,0,0,0,0,0,760,
scooby_state_43a0c0|43|1 757,0,0,0,0,0,0,0,0,1,0,0,1,0,1,760,
scooby_state_43a146|23|1 756,0,0,0,0,1,0,1,0,0,1,0,1,0,0,760,
scooby_state_43a0fd|28|1 758,0,0,0,0,0,1,0,1,0,0,0,0,0,0,760,
scooby_state_43a0fd|23|1 759,0,0,0,0,0,0,0,0,0,0,0,0,0,1,760,
scooby_state_43a0d9|47|1 759,0,0,0,0,0,0,0,0,1,0,0,0,0,0,760,
scooby_state_43a0cf|14|1 759,0,0,0,0,0,0,0,0,0,0,0,0,1,0,760,
scooby_state_43a688|1|1 760,0,0,0,0,0,0,0,0,0,0,0,0,0,0,760,
scooby_state_43a0fd|15|1 759,0,0,0,0,0,0,0,0,0,0,0,0,1,0,760,
scooby_state_43a0d9|59|1 760,0,0,0,0,0,0,0,0,0,0,0,0,0,0,760,
scooby_state_43a680|28|1 759,0,0,0,0,0,1,0,0,0,0,0,0,0,0,760,
scooby_state_43a158|46|1 760,0,0,0,0,0,0,0,0,0,0,0,0,0,0,760,
scooby_state_43a0cf|29|1 758,1,0,0,0,0,1,0,0,0,0,0,0,0,0,760,
scooby_state_43a103|40|1 758,0,0,1,1,0,0,0,0,0,0,0,0,0,0,760,
scooby_state_43a0d9|53|1 757,0,0,0,0,0,1,0,0,1,0,0,0,1,0,760,
scooby_state_43a0cf|15|1 757,1,0,0,0,1,0,1,0,0,0,0,0,0,0,760,
scooby_state_43a0fd|20|1 760,0,0,0,0,0,0,0,0,0,0,0,0,0,0,760,
scooby_state_43a158|24|1 759,0,0,0,0,0,0,0,0,0,1,0,0,0,0,760,
scooby_state_43a158|39|1 756,1,1,0,0,1,0,0,0,0,0,1,0,0,0,760,
scooby_state_43a146|37|1 759,0,0,0,0,0,0,0,0,0,0,1,0,0,0,760,
scooby_state_43a0c0|51|1 759,0,0,0,0,0,0,1,0,0,0,0,0,0,0,760,
scooby_state_43a0cf|17|1 756,0,0,0,0,1,0,1,0,2,0,0,0,0,0,760,
scooby_state_43a146|34|1 760,0,0,0,0,0,0,0,0,0,0,0,0,0,0,760,
scooby_state_43a0fd|10|1 760,0,0,0,0,0,0,0,0,0,0,0,0,0,0,760,
scooby_state_43a688|2|1 760,0,0,0,0,0,0,0,0,0,0,0,0,0,0,760,
scooby_state_43a0ef|37|1 760,0,0,0,0,0,0,0,0,0,0,0,0,0,0,760,
scooby_state_43a0ef|42|1 760,0,0,0,0,0,0,0,0,0,0,0,0,0,0,760,
scooby_state_43a0c0|48|1 760,0,0,0,0,0,0,0,0,0,0,0,0,0,0,760,
scooby_state_43a0c0|44|1 759,0,0,1,0,0,0,0,0,0,0,0,0,0,0,760,
scooby_state_43a0cf|12|1 758,1,0,1,0,0,0,0,0,0,0,0,0,0,0,760,
scooby_state_43a688|13|1 759,0,0,0,0,0,0,0,0,0,1,0,0,0,0,760,
scooby_state_43a0c0|38|1 759,0,0,0,0,0,1,0,0,0,0,0,0,0,0,760,
scooby_state_43a0ef|52|1 758,0,0,0,0,1,0,1,0,0,0,0,0,0,0,760,
scooby_state_43a0d9|41|1 758,1,0,0,0,0,0,0,0,1,0,0,0,0,0,760,
scooby_state_43a0ef|62|1 759,0,0,0,0,0,0,0,0,0,0,0,1,0,0,760,
scooby_state_43a0ef|54|1 759,0,0,0,0,0,0,0,0,0,0,1,0,0,0,760,
scooby_state_43a146|44|1 760,0,0,0,0,0,0,0,0,0,0,0,0,0,0,760,
scooby_state_43a158|29|1 759,0,1,0,0,0,0,0,0,0,0,0,0,0,0,760,
scooby_state_43a0cf|27|1 759,0,0,0,0,0,0,0,0,0,1,0,0,0,0,760,
scooby_state_43a158|25|1 756,0,0,0,0,0,0,0,2,0,0,0,0,0,2,760,
scooby_state_43a680|42|1 758,0,0,0,1,0,0,0,1,0,0,0,0,0,0,760,
scooby_state_43a688|17|1 760,0,0,0,0,0,0,0,0,0,0,0,0,0,0,760,
scooby_state_43a146|39|1 758,0,0,0,2,0,0,0,0,0,0,0,0,0,0,760,
scooby_state_43a680|50|1 760,0,0,0,0,0,0,0,0,0,0,0,0,0,0,760,
scooby_state_43a680|49|1 758,1,0,0,0,0,0,0,0,0,0,0,1,0,0,760,
scooby_state_43a688|15|1 757,1,0,2,0,0,0,0,0,0,0,0,0,0,0,760,
scooby_state_43a688|14|1 760,0,0,0,0,0,0,0,0,0,0,0,0,0,0,760,
scooby_state_43a680|46|1 758,0,0,1,0,0,0,0,1,0,0,0,0,0,0,760,
scooby_state_43a688|12|1 759,0,0,0,0,0,0,0,0,1,0,0,0,0,0,760,
scooby_state_43a0ef|49|1 757,0,0,1,0,0,1,0,0,1,0,0,0,0,0,760,
scooby_state_43a680|44|1 759,0,0,0,0,0,0,0,0,0,0,0,0,0,1,760,
scooby_state_43a688|11|1 758,0,0,0,0,0,0,0,1,0,0,1,0,0,0,760,
scooby_state_43a688|53|1 758,1,1,0,0,0,0,0,0,0,0,0,0,0,0,760,
scooby_state_43a688|59|1 758,0,0,0,1,0,0,0,0,1,0,0,0,0,0,760,
scooby_state_43a680|43|1 759,0,0,0,0,0,0,1,0,0,0,0,0,0,0,760,
scooby_state_43a688|9|1 759,0,0,0,0,0,0,0,0,0,0,1,0,0,0,760,
scooby_state_43a680|52|1 759,0,1,0,0,0,0,0,0,0,0,0,0,0,0,760,
scooby_state_43a0cf|19|1 758,0,0,0,0,0,0,0,1,0,0,1,0,0,0,760,
scooby_state_43a688|8|1 760,0,0,0,0,0,0,0,0,0,0,0,0,0,0,760,
scooby_state_43a680|41|1 760,0,0,0,0,0,0,0,0,0,0,0,0,0,0,760,
scooby_state_43a680|40|1 757,0,0,0,0,0,0,0,0,0,1,0,0,0,2,760,
scooby_state_43a688|6|1 760,0,0,0,0,0,0,0,0,0,0,0,0,0,0,760,
scooby_state_43a680|39|1 757,1,0,0,0,1,0,0,0,1,0,0,0,0,0,760,
scooby_state_43a0d9|45|1 758,0,0,2,0,0,0,0,0,0,0,0,0,0,0,760,
scooby_state_43a688|5|1 758,0,0,0,0,1,1,0,0,0,0,0,0,0,0,760,
scooby_state_43a680|38|1 760,0,0,0,0,0,0,0,0,0,0,0,0,0,0,760,
scooby_state_43a680|37|1 759,0,0,0,0,0,0,0,0,0,0,0,0,0,1,760,
scooby_state_43a688|3|1 758,0,0,0,1,1,0,0,0,0,0,0,0,0,0,760,
scooby_state_43a680|36|1 759,0,0,0,1,0,0,0,0,0,0,0,0,0,0,760,
scooby_state_43a680|35|1 760,0,0,0,0,0,0,0,0,0,0,0,0,0,0,760,
scooby_state_43a680|34|1 760,0,0,0,0,0,0,0,0,0,0,0,0,0,0,760,
scooby_state_43a688|0|0 759,0,0,0,0,0,0,0,0,1,0,0,0,0,0,760,
scooby_state_43a680|29|1 759,0,0,0,0,0,1,0,0,0,0,0,0,0,0,760,
scooby_state_43a0d9|49|1 759,0,0,0,0,0,0,0,0,0,1,0,0,0,0,760,
scooby_state_43a0d9|37|1 758,0,0,1,1,0,0,0,0,0,0,0,0,0,0,760,
scooby_state_43a0fd|1|1 759,0,0,0,0,0,0,0,0,1,0,0,0,0,0,760,
scooby_state_43a158|36|1 758,0,0,0,0,0,1,1,0,0,0,0,0,0,0,760,
scooby_state_43a0c0|36|1 758,0,0,0,0,0,1,0,1,0,0,0,0,0,0,760,
scooby_state_43a688|4|1 757,1,1,0,0,0,1,0,0,0,0,0,0,0,0,760,
scooby_state_43a0cf|22|1 759,0,0,0,0,0,0,0,0,1,0,0,0,0,0,760,
scooby_state_43a146|42|1 760,0,0,0,0,0,0,0,0,0,0,0,0,0,0,760,
scooby_state_43a0fd|14|1 760,0,0,0,0,0,0,0,0,0,0,0,0,0,0,760,
scooby_state_43a688|50|1 759,0,1,0,0,0,0,0,0,0,0,0,0,0,0,760,
scooby_state_43a0ef|53|1 759,0,0,1,0,0,0,0,0,0,0,0,0,0,0,760,
scooby_state_43a0ef|47|1 757,0,0,0,1,1,0,1,0,0,0,0,0,0,0,760,
scooby_state_43a0cf|3|1 760,0,0,0,0,0,0,0,0,0,0,0,0,0,0,760,
scooby_state_43a158|35|1 758,0,0,1,1,0,0,0,0,0,0,0,0,0,0,760,
scooby_state_43a688|60|1 760,0,0,0,0,0,0,0,0,0,0,0,0,0,0,760,
scooby_state_43a688|63|1 758,0,0,0,0,1,0,0,0,1,0,0,0,0,0,760,
scooby_state_43a0fd|3|1 760,0,0,0,0,0,0,0,0,0,0,0,0,0,0,760,
scooby_state_43a0c0|39|1 759,0,0,0,0,0,0,0,0,0,0,0,0,0,1,760,
scooby_state_43a0d9|48|1 760,0,0,0,0,0,0,0,0,0,0,0,0,0,0,760,
scooby_state_43a158|44|1 760,0,0,0,0,0,0,0,0,0,0,0,0,0,0,760,
scooby_state_43a0fd|5|1 758,0,0,0,1,0,0,0,0,0,0,1,0,0,0,760,
scooby_state_43a0fd|24|1 759,0,0,0,0,0,0,0,0,1,0,0,0,0,0,760,
scooby_state_43a0fd|22|1 758,0,0,0,0,0,0,0,0,2,0,0,0,0,0,760,
scooby_state_43a680|45|1 759,0,1,0,0,0,0,0,0,0,0,0,0,0,0,760,
scooby_state_43a688|52|1 758,1,0,0,0,0,0,1,0,0,0,0,0,0,0,760,
scooby_state_43a680|24|1 758,0,1,0,0,0,0,0,0,0,0,1,0,0,0,760,
scooby_state_43a158|28|1 759,1,0,0,0,0,0,0,0,0,0,0,0,0,0,760,
scooby_state_43a680|54|1 757,0,0,0,0,0,0,0,1,0,0,1,1,0,0,760,
scooby_state_43a680|53|1 759,0,0,0,0,0,0,0,1,0,0,0,0,0,0,760,
scooby_state_43a688|19|1 760,0,0,0,0,0,0,0,0,0,0,0,0,0,0,760,
scooby_state_43a158|31|1 759,0,0,0,1,0,0,0,0,0,0,0,0,0,0,760,
scooby_state_43a146|38|1 757,0,0,1,1,0,0,0,0,0,0,1,0,0,0,760,
scooby_state_43a0cf|18|1 758,0,0,0,0,1,0,0,0,0,0,1,0,0,0,760,
scooby_state_43a103|48|1 760,0,0,0,0,0,0,0,0,0,0,0,0,0,0,760,
scooby_state_43a0fd|17|1 758,1,0,0,0,0,0,0,0,1,0,0,0,0,0,760,
scooby_state_43a0fd|8|1 756,0,0,0,1,0,0,0,0,1,1,1,0,0,0,760,
scooby_state_43a0fd|16|1 760,0,0,0,0,0,0,0,0,0,0,0,0,0,0,760,
scooby_state_43a0c0|50|1 760,0,0,0,0,0,0,0,0,0,0,0,0,0,0,760,
scooby_state_43a103|45|1 757,1,0,1,1,0,0,0,0,0,0,0,0,0,0,760,
scooby_state_43a158|47|1 759,0,0,0,0,0,0,0,0,1,0,0,0,0,0,760,
scooby_state_43a103|44|1 760,0,0,0,0,0,0,0,0,0,0,0,0,0,0,760,
scooby_state_43a0d9|51|1 756,1,1,0,1,0,1,0,0,0,0,0,0,0,0,760,
scooby_state_43a0fd|13|1 756,0,0,1,0,0,0,0,0,0,1,0,1,1,0,760,
scooby_state_43a146|33|1 757,1,0,0,0,0,0,0,0,0,0,2,0,0,0,760,
scooby_state_43a0ef|46|1 758,0,0,0,0,0,0,0,1,0,0,0,1,0,0,760,
scooby_state_43a0d9|43|1 756,1,0,0,0,0,0,1,0,1,0,0,1,0,0,760,
scooby_state_43a103|38|1 757,0,0,0,0,1,0,0,0,0,0,2,0,0,0,760,
scooby_state_43a0c0|46|1 759,0,0,0,0,0,0,1,0,0,0,0,0,0,0,760,
scooby_state_43a0ef|45|1 758,0,1,0,1,0,0,0,0,0,0,0,0,0,0,760,
scooby_state_43a0c0|53|1 758,0,0,0,0,0,0,0,0,0,0,1,0,1,0,760,
scooby_state_43a0d9|42|1 760,0,0,0,0,0,0,0,0,0,0,0,0,0,0,760,
scooby_state_43a146|31|1 758,0,0,0,0,0,1,0,0,0,0,1,0,0,0,760,
scooby_state_43a103|41|1 758,0,0,0,0,0,1,0,1,0,0,0,0,0,0,760,
scooby_state_43a158|23|1 759,1,0,0,0,0,0,0,0,0,0,0,0,0,0,760,
scooby_state_43a688|7|1 759,0,0,0,1,0,0,0,0,0,0,0,0,0,0,760,
scooby_state_43a103|49|1 758,0,0,0,0,0,1,0,0,0,0,1,0,0,0,760,
scooby_state_43a0c0|45|1 759,0,0,0,0,0,0,0,0,1,0,0,0,0,0,760,
scooby_state_43a158|30|1 759,0,0,0,0,0,0,0,0,0,0,1,0,0,0,760,
scooby_state_43a146|30|1 759,0,0,1,0,0,0,0,0,0,0,0,0,0,0,760,
scooby_state_43a146|25|1 757,0,0,0,1,0,0,0,0,0,2,0,0,0,0,760,
scooby_state_43a0ef|60|1 760,0,0,0,0,0,0,0,0,0,0,0,0,0,0,760,
scooby_state_43a0d9|54|1 759,0,0,0,0,0,0,0,0,0,0,1,0,0,0,760,
scooby_state_43a688|62|1 759,0,0,0,1,0,0,0,0,0,0,0,0,0,0,760,
scooby_state_43a680|32|1 758,0,0,0,0,0,0,1,0,1,0,0,0,0,0,760,
scooby_state_43a680|31|1 758,0,0,0,0,0,0,1,1,0,0,0,0,0,0,760,
scooby_state_43a688|61|1 759,1,0,0,0,0,0,0,0,0,0,0,0,0,0,760,
scooby_state_43a103|59|1 760,0,0,0,0,0,0,0,0,0,0,0,0,0,0,760,
scooby_state_43a0cf|28|1 758,0,1,0,0,0,0,0,0,1,0,0,0,0,0,760,
scooby_state_43a680|30|1 760,0,0,0,0,0,0,0,0,0,0,0,0,0,0,760,
scooby_state_43a0fd|27|1 759,0,0,0,1,0,0,0,0,0,0,0,0,0,0,760,
scooby_state_43a103|56|1 759,0,0,0,0,0,0,0,0,0,1,0,0,0,0,760,
scooby_state_43a0ef|59|1 759,0,0,0,1,0,0,0,0,0,0,0,0,0,0,760,
scooby_state_43a0ef|58|1 759,0,0,0,0,0,0,0,0,0,0,0,0,0,1,760,
scooby_state_43a0c0|59|1 758,0,1,0,0,0,0,0,0,0,0,0,0,0,1,760,
scooby_state_43a0d9|55|1 759,1,0,0,0,0,0,0,0,0,0,0,0,0,0,760,
scooby_state_43a0c0|58|1 760,0,0,0,0,0,0,0,0,0,0,0,0,0,0,760,
scooby_state_43a158|43|1 758,0,1,0,0,0,0,0,0,0,0,0,0,0,1,760,
scooby_state_43a688|51|1 758,0,1,0,0,0,0,0,0,0,1,0,0,0,0,760,
scooby_state_43a0d9|32|1 759,0,0,0,0,1,0,0,0,0,0,0,0,0,0,760,
scooby_state_43a103|53|1 759,0,0,0,0,0,0,0,0,0,0,1,0,0,0,760,
scooby_state_43a146|43|1 759,0,0,0,0,1,0,0,0,0,0,0,0,0,0,760,
scooby_state_43a680|47|1 760,0,0,0,0,0,0,0,0,0,0,0,0,0,0,760,
scooby_state_43a0cf|23|1 758,0,0,0,0,0,2,0,0,0,0,0,0,0,0,760,
scooby_state_43a0cf|5|1 759,0,0,0,0,0,0,0,0,0,0,0,0,0,1,760,
scooby_state_43a0ef|55|1 758,0,0,0,0,0,1,0,0,0,0,0,1,0,0,760,
scooby_state_43a103|51|1 759,0,1,0,0,0,0,0,0,0,0,0,0,0,0,760,
scooby_state_43a146|41|1 759,0,0,0,0,0,0,0,0,0,0,0,1,0,0,760,
scooby_state_43a158|40|1 758,1,0,0,0,0,0,0,0,0,0,0,0,0,1,760,
scooby_state_43a0c0|54|1 760,0,0,0,0,0,0,0,0,0,0,0,0,0,0,760,
scooby_state_43a0cf|20|1 756,2,0,0,0,0,0,0,0,0,0,1,0,0,1,760,
scooby_state_43a0d9|57|1 759,0,0,0,1,0,0,0,0,0,0,0,0,0,0,760,
scooby_state_43a0cf|26|1 757,0,0,2,0,0,1,0,0,0,0,0,0,0,0,760,
scooby_state_43a680|27|1 759,0,0,0,0,0,0,0,1,0,0,0,0,0,0,760,
scooby_state_43a103|31|1 760,0,0,0,0,0,0,0,0,0,0,0,0,0,0,760,
scooby_state_43a688|56|1 757,0,0,0,0,1,0,0,0,1,1,0,0,0,0,760,
scooby_state_43a158|32|1 759,0,0,0,0,1,0,0,0,0,0,0,0,0,0,760,
scooby_state_43a103|52|1 758,0,1,0,0,0,0,0,0,1,0,0,0,0,0,760,
scooby_state_43a158|38|1 758,1,0,0,0,1,0,0,0,0,0,0,0,0,0,760,
scooby_state_43a146|22|1 759,0,0,0,0,0,0,0,1,0,0,0,0,0,0,760,
scooby_state_43a158|48|1 758,0,0,0,0,1,0,0,0,0,0,0,1,0,0,760,
scooby_state_43a0fd|21|1 760,0,0,0,0,0,0,0,0,0,0,0,0,0,0,760,
scooby_state_43a158|26|1 759,1,0,0,0,0,0,0,0,0,0,0,0,0,0,760,
scooby_state_43a103|55|1 760,0,0,0,0,0,0,0,0,0,0,0,0,0,0,760,
scooby_state_43a0d9|44|1 760,0,0,0,0,0,0,0,0,0,0,0,0,0,0,760,
scooby_state_43a0c0|56|1 760,0,0,0,0,0,0,0,0,0,0,0,0,0,0,760,
scooby_state_43a146|49|1 760,0,0,0,0,0,0,0,0,0,0,0,0,0,0,760,
scooby_state_43a103|50|1 759,1,0,0,0,0,0,0,0,0,0,0,0,0,0,760,
scooby_state_43a103|54|1 760,0,0,0,0,0,0,0,0,0,0,0,0,0,0,760,
scooby_state_43a0ef|50|1 758,0,0,0,1,0,0,0,0,0,0,0,1,0,0,760,
scooby_state_43a0cf|8|1 757,0,0,0,0,1,0,0,1,1,0,0,0,0,0,760,
scooby_state_43a146|40|1 759,0,0,0,0,0,0,1,0,0,0,0,0,0,0,760,
scooby_state_43a0cf|24|1 757,0,0,0,0,0,0,0,0,0,0,1,0,1,1,760,
scooby_state_43a103|47|1 758,0,0,0,0,0,0,0,0,0,0,0,1,1,0,760,
scooby_state_43a146|47|1 757,0,1,1,0,0,0,0,0,0,0,1,0,0,0,760,
scooby_state_43a0ef|51|1 759,1,0,0,0,0,0,0,0,0,0,0,0,0,0,760,
scooby_state_43a0c0|47|1 757,0,1,0,0,0,0,0,0,0,0,0,1,1,0,760,
scooby_state_43a0cf|9|1 756,0,0,0,0,0,0,1,0,0,0,1,0,1,1,760,
scooby_state_43a0fd|12|1 760,0,0,0,0,0,0,0,0,0,0,0,0,0,0,760,
scooby_state_43a0c0|37|1 759,0,1,0,0,0,0,0,0,0,0,0,0,0,0,760,
scooby_state_43a0ef|57|1 758,0,1,0,0,0,0,1,0,0,0,0,0,0,0,760,
scooby_state_43a0c0|49|1 756,0,0,0,0,0,0,1,1,1,0,0,0,0,1,760,
scooby_state_43a0fd|11|1 758,0,0,0,0,0,1,0,0,0,0,1,0,0,0,760,
scooby_state_43a0fd|25|1 760,0,0,0,0,0,0,0,0,0,0,0,0,0,0,760,
scooby_state_43a0fd|29|1 760,0,0,0,0,0,0,0,0,0,0,0,0,0,0,760,
scooby_state_43a103|42|1 758,0,0,0,0,0,0,0,0,0,1,0,0,1,0,760,
scooby_state_43a158|37|1 758,0,0,0,0,0,0,0,0,1,0,0,1,0,0,760,
scooby_state_43a0d9|52|1 760,0,0,0,0,0,0,0,0,0,0,0,0,0,0,760,
scooby_state_43a0cf|4|1 759,0,0,0,0,0,0,0,0,0,0,0,1,0,0,760,
scooby_state_43a0fd|19|1 759,0,1,0,0,0,0,0,0,0,0,0,0,0,0,760,
scooby_state_43a0d9|58|1 758,0,0,0,0,1,1,0,0,0,0,0,0,0,0,760,
scooby_state_43a680|22|1 759,0,0,0,0,0,0,0,0,1,0,0,0,0,0,760,
scooby_state_43a0ef|56|1 760,0,0,0,0,0,0,0,0,0,0,0,0,0,0,760,
scooby_state_43a146|46|1 758,0,0,0,0,0,0,0,0,0,0,0,1,1,0,760,
scooby_state_43a0c0|55|1 759,0,0,1,0,0,0,0,0,0,0,0,0,0,0,760,
scooby_state_43a0ef|61|1 758,1,0,0,0,0,0,0,0,0,0,0,0,0,1,760,
scooby_state_43a103|43|1 759,0,0,0,0,0,0,0,0,1,0,0,0,0,0,760,
scooby_state_43a158|42|1 758,0,0,0,0,1,1,0,0,0,0,0,0,0,0,760,
scooby_state_43a0d9|46|1 760,0,0,0,0,0,0,0,0,0,0,0,0,0,0,760,
scooby_state_43a680|51|1 760,0,0,0,0,0,0,0,0,0,0,0,0,0,0,760,
scooby_state_43a0c0|62|1 760,0,0,0,0,0,0,0,0,0,0,0,0,0,0,760,
scooby_state_43a680|21|1 760,0,0,0,0,0,0,0,0,0,0,0,0,0,0,760,
scooby_state_43a688|10|1 758,0,0,0,0,0,0,0,0,1,0,0,1,0,0,760,
scooby_state_43a680|20|1 759,0,1,0,0,0,0,0,0,0,0,0,0,0,0,760,
scooby_state_43a680|25|1 757,0,0,1,0,0,0,1,0,0,1,0,0,0,0,760,
scooby_state_43a0fd|4|1 757,1,0,1,0,0,0,1,0,0,0,0,0,0,0,760,
scooby_state_43a0c0|60|1 760,0,0,0,0,0,0,0,0,0,0,0,0,0,0,760,
scooby_state_43a0c0|41|1 758,0,0,0,0,0,0,0,1,0,0,0,0,0,1,760,
scooby_state_43a0c0|61|1 758,1,0,0,0,0,0,0,0,0,0,0,0,1,0,760,
scooby_state_43a680|23|1 756,0,0,0,0,0,1,1,0,0,1,0,0,1,0,760,
scooby_state_43a0ef|44|1 760,0,0,0,0,0,0,0,0,0,0,0,0,0,0,760,
scooby_state_43a0ef|35|1 757,0,0,0,0,0,1,0,0,1,1,0,0,0,0,760,
scooby_state_43a688|54|1 759,0,0,0,0,0,0,0,0,0,0,0,1,0,0,760,
scooby_state_43a0d9|40|1 760,0,0,0,0,0,0,0,0,0,0,0,0,0,0,760,
scooby_state_43a680|33|1 759,0,0,0,0,0,0,0,0,0,0,0,0,1,0,760,
scooby_state_43a688|55|1 759,0,0,0,0,0,0,0,1,0,0,0,0,0,0,760,
scooby_state_43a688|57|1 759,0,0,0,0,0,0,1,0,0,0,0,0,0,0,760,
scooby_state_43a688|18|1 760,0,0,0,0,0,0,0,0,0,0,0,0,0,0,760,
scooby_state_43a0cf|16|1 758,0,0,0,0,0,0,0,0,1,1,0,0,0,0,760,
scooby_state_43a0d9|60|1 757,0,1,0,0,1,0,0,0,0,0,0,1,0,0,760,
scooby_state_43a688|58|1 759,0,0,0,0,0,0,0,0,1,0,0,0,0,0,760,
scooby_state_439753|0|0 757,0,0,0,0,0,0,0,0,0,1,0,1,0,0,759,
scooby_state_439720|0|0 757,0,0,0,0,0,0,0,0,0,0,0,0,1,0,758,
scooby_state_439ed0|0|0 752,0,0,1,0,0,0,0,0,0,0,1,0,0,0,754,
scooby_state_43a17d|0|0 752,0,0,1,0,0,0,0,0,0,0,0,0,0,0,753,
scooby_state_43a0d5|0|0 753,0,0,0,0,0,0,0,0,0,0,0,0,0,0,753,
scooby_state_43972d|0|0 752,0,0,0,0,0,1,0,0,0,0,0,0,0,0,753,
scooby_state_439753|24|1 744,0,0,1,0,1,0,0,0,0,0,0,0,0,0,746,
scooby_state_439753|48|1 745,0,0,0,0,1,0,0,0,0,0,0,0,0,0,746,
scooby_state_439720|49|1 742,0,0,0,0,0,0,0,1,0,0,1,1,0,1,746,
scooby_state_439720|45|1 745,0,0,0,0,0,0,0,0,0,1,0,0,0,0,746,
scooby_state_439720|18|1 745,0,0,0,0,0,0,0,1,0,0,0,0,0,0,746,
scooby_state_439720|12|1 745,0,0,0,0,0,0,0,0,0,0,0,1,0,0,746,
scooby_state_439720|5|1 746,0,0,0,0,0,0,0,0,0,0,0,0,0,0,746,
scooby_state_43972d|17|1 746,0,0,0,0,0,0,0,0,0,0,0,0,0,0,746,
scooby_state_439720|42|1 745,0,0,0,0,0,0,0,0,0,1,0,0,0,0,746,
scooby_state_439720|13|1 745,0,0,0,0,0,0,0,0,0,0,0,0,0,1,746,
scooby_state_439720|52|1 744,0,0,0,0,0,0,0,1,0,1,0,0,0,0,746,
scooby_state_439753|59|1 745,0,0,0,0,0,0,0,0,0,0,0,1,0,0,746,
scooby_state_439753|23|1 744,0,0,1,0,0,0,0,0,0,0,0,1,0,0,746,
scooby_state_439720|9|1 746,0,0,0,0,0,0,0,0,0,0,0,0,0,0,746,
scooby_state_439720|38|1 744,0,0,0,0,1,0,0,0,0,0,1,0,0,0,746,
scooby_state_439720|60|1 744,0,0,0,0,1,0,0,1,0,0,0,0,0,0,746,
scooby_state_43972d|29|1 746,0,0,0,0,0,0,0,0,0,0,0,0,0,0,746,
scooby_state_439720|11|1 745,0,0,1,0,0,0,0,0,0,0,0,0,0,0,746,
scooby_state_439753|13|1 745,0,0,0,1,0,0,0,0,0,0,0,0,0,0,746,
scooby_state_439753|58|1 746,0,0,0,0,0,0,0,0,0,0,0,0,0,0,746,
scooby_state_439753|12|1 745,0,0,0,0,0,0,0,0,0,0,0,1,0,0,746,
scooby_state_43972d|41|1 744,0,0,0,0,0,0,0,0,1,0,1,0,0,0,746,
scooby_state_439720|54|1 746,0,0,0,0,0,0,0,0,0,0,0,0,0,0,746,
scooby_state_439753|50|1 743,0,0,0,0,0,0,0,0,0,2,0,1,0,0,746,
scooby_state_439720|20|1 746,0,0,0,0,0,0,0,0,0,0,0,0,0,0,746,
scooby_state_439753|26|1 746,0,0,0,0,0,0,0,0,0,0,0,0,0,0,746,
scooby_state_439720|28|1 746,0,0,0,0,0,0,0,0,0,0,0,0,0,0,746,
scooby_state_43972d|59|1 745,1,0,0,0,0,0,0,0,0,0,0,0,0,0,746,
scooby_state_439753|57|1 742,0,0,0,0,1,2,0,0,0,1,0,0,0,0,746,
scooby_state_43972d|35|1 745,0,1,0,0,0,0,0,0,0,0,0,0,0,0,746,
scooby_state_43972d|47|1 743,1,0,0,0,0,0,2,0,0,0,0,0,0,0,746,
scooby_state_43972d|33|1 745,0,0,0,0,0,0,0,0,0,0,0,0,1,0,746,
scooby_state_43972d|3|1 745,0,0,0,0,0,0,0,0,1,0,0,0,0,0,746,
scooby_state_439753|37|1 745,0,0,0,0,0,0,0,0,0,0,0,0,1,0,746,
scooby_state_439753|46|1 746,0,0,0,0,0,0,0,0,0,0,0,0,0,0,746,
scooby_state_439753|55|1 743,1,0,0,0,1,0,1,0,0,0,0,0,0,0,746,
scooby_state_43972d|1|1 745,0,0,0,0,0,0,0,0,0,0,0,0,0,1,746,
scooby_state_439753|33|1 743,0,1,0,1,0,0,0,0,1,0,0,0,0,0,746,
scooby_state_439753|41|1 745,0,0,0,0,0,0,0,1,0,0,0,0,0,0,746,
scooby_state_439753|3|1 745,0,0,0,0,0,0,0,0,0,0,0,1,0,0,746,
scooby_state_43972d|63|1 743,0,0,0,0,0,0,1,0,1,0,1,0,0,0,746,
scooby_state_439720|1|1 746,0,0,0,0,0,0,0,0,0,0,0,0,0,0,746,
scooby_state_43972d|30|1 745,0,0,0,0,0,0,0,1,0,0,0,0,0,0,746,
scooby_state_439720|63|1 744,0,1,0,1,0,0,0,0,0,0,0,0,0,0,746,
scooby_state_43972d|25|1 745,0,0,0,0,0,0,0,0,0,0,0,0,0,1,746,
scooby_state_439753|9|1 745,0,0,0,0,0,0,0,0,0,0,0,0,0,1,746,
scooby_state_439720|21|1 744,0,0,0,0,0,1,0,0,1,0,0,0,0,0,746,
scooby_state_439720|36|1 746,0,0,0,0,0,0,0,0,0,0,0,0,0,0,746,
scooby_state_439720|16|1 743,1,0,0,0,0,0,1,0,0,0,0,0,0,1,746,
scooby_state_43972d|13|1 745,0,0,0,0,0,0,0,0,0,0,0,0,1,0,746,
scooby_state_43972d|45|1 746,0,0,0,0,0,0,0,0,0,0,0,0,0,0,746,
scooby_state_43972d|32|1 743,0,0,0,0,1,0,0,0,1,1,0,0,0,0,746,
scooby_state_439753|28|1 746,0,0,0,0,0,0,0,0,0,0,0,0,0,0,746,
scooby_state_439753|7|1 745,0,0,0,0,0,0,0,0,0,0,0,0,0,1,746,
scooby_state_439720|40|1 743,0,1,0,0,0,1,0,0,0,0,0,0,0,1,746,
scooby_state_439720|53|1 743,0,0,0,1,0,0,0,0,0,0,0,0,1,1,746,
scooby_state_439753|11|1 745,0,0,0,0,0,0,0,1,0,0,0,0,0,0,746,
scooby_state_43972d|16|1 746,0,0,0,0,0,0,0,0,0,0,0,0,0,0,746,
scooby_state_439720|59|1 743,0,0,0,0,0,0,0,0,1,2,0,0,0,0,746,
scooby_state_439720|61|1 744,0,0,0,0,0,0,1,1,0,0,0,0,0,0,746,
scooby_state_439720|34|1 742,1,0,0,0,1,0,0,1,1,0,0,0,0,0,746,
scooby_state_439753|32|1 744,0,0,0,0,1,0,0,0,0,0,1,0,0,0,746,
scooby_state_43972d|21|1 746,0,0,0,0,0,0,0,0,0,0,0,0,0,0,746,
scooby_state_43972d|12|1 744,0,0,0,1,1,0,0,0,0,0,0,0,0,0,746,
scooby_state_439753|38|1 744,0,0,1,0,0,0,0,0,0,0,0,0,1,0,746,
scooby_state_439753|14|1 745,0,0,0,0,0,0,0,0,0,0,0,0,1,0,746,
scooby_state_439720|26|1 745,0,0,0,0,0,0,0,0,0,1,0,0,0,0,746,
scooby_state_43972d|20|1 746,0,0,0,0,0,0,0,0,0,0,0,0,0,0,746,
scooby_state_43972d|7|1 746,0,0,0,0,0,0,0,0,0,0,0,0,0,0,746,
scooby_state_43972d|26|1 746,0,0,0,0,0,0,0,0,0,0,0,0,0,0,746,
scooby_state_43972d|18|1 744,1,0,1,0,0,0,0,0,0,0,0,0,0,0,746,
scooby_state_439753|17|1 746,0,0,0,0,0,0,0,0,0,0,0,0,0,0,746,
scooby_state_43972d|53|1 745,0,0,0,0,0,1,0,0,0,0,0,0,0,0,746,
scooby_state_439720|10|1 746,0,0,0,0,0,0,0,0,0,0,0,0,0,0,746,
scooby_state_43972d|6|1 744,0,0,1,0,0,0,1,0,0,0,0,0,0,0,746,
scooby_state_43972d|38|1 746,0,0,0,0,0,0,0,0,0,0,0,0,0,0,746,
scooby_state_43972d|4|1 746,0,0,0,0,0,0,0,0,0,0,0,0,0,0,746,
scooby_state_439720|55|1 745,0,0,0,0,0,0,0,0,0,0,0,0,0,1,746,
scooby_state_43972d|50|1 746,0,0,0,0,0,0,0,0,0,0,0,0,0,0,746,
scooby_state_43972d|23|1 746,0,0,0,0,0,0,0,0,0,0,0,0,0,0,746,
scooby_state_43972d|22|1 745,1,0,0,0,0,0,0,0,0,0,0,0,0,0,746,
scooby_state_439753|5|1 746,0,0,0,0,0,0,0,0,0,0,0,0,0,0,746,
scooby_state_439753|40|1 745,0,1,0,0,0,0,0,0,0,0,0,0,0,0,746,
scooby_state_43972d|37|1 745,0,0,0,0,0,0,0,0,0,1,0,0,0,0,746,
scooby_state_439720|56|1 745,0,0,0,0,1,0,0,0,0,0,0,0,0,0,746,
scooby_state_439753|10|1 744,0,0,0,0,0,0,0,0,1,0,1,0,0,0,746,
scooby_state_439720|22|1 745,0,0,0,0,0,0,0,0,1,0,0,0,0,0,746,
scooby_state_439720|50|1 745,0,0,0,1,0,0,0,0,0,0,0,0,0,0,746,
scooby_state_43972d|15|1 745,0,0,0,0,0,0,0,0,0,0,0,0,0,1,746,
scooby_state_439720|25|1 746,0,0,0,0,0,0,0,0,0,0,0,0,0,0,746,
scooby_state_43972d|54|1 745,0,0,0,0,0,0,0,0,0,0,0,0,0,1,746,
scooby_state_439720|29|1 745,0,0,0,0,1,0,0,0,0,0,0,0,0,0,746,
scooby_state_439753|43|1 746,0,0,0,0,0,0,0,0,0,0,0,0,0,0,746,
scooby_state_43972d|44|1 745,0,0,0,0,0,0,0,0,0,0,1,0,0,0,746,
scooby_state_439720|24|1 746,0,0,0,0,0,0,0,0,0,0,0,0,0,0,746,
scooby_state_439753|60|1 746,0,0,0,0,0,0,0,0,0,0,0,0,0,0,746,
scooby_state_43972d|9|1 745,0,0,0,0,0,0,0,0,0,0,0,0,0,1,746,
scooby_state_439720|3|1 746,0,0,0,0,0,0,0,0,0,0,0,0,0,0,746,
scooby_state_439753|54|1 745,0,0,0,0,0,0,0,0,0,0,1,0,0,0,746,
scooby_state_439753|16|1 746,0,0,0,0,0,0,0,0,0,0,0,0,0,0,746,
scooby_state_439720|4|1 745,0,0,1,0,0,0,0,0,0,0,0,0,0,0,746,
scooby_state_439753|61|1 745,0,0,1,0,0,0,0,0,0,0,0,0,0,0,746,
scooby_state_43972d|58|1 745,0,0,0,0,0,0,0,0,0,1,0,0,0,0,746,
scooby_state_43972d|57|1 744,0,0,1,0,0,0,0,0,0,1,0,0,0,0,746,
scooby_state_43972d|39|1 743,0,0,0,0,1,1,0,1,0,0,0,0,0,0,746,
scooby_state_43972d|11|1 744,0,0,0,0,0,0,0,0,0,0,0,0,2,0,746,
scooby_state_439753|29|1 746,0,0,0,0,0,0,0,0,0,0,0,0,0,0,746,
scooby_state_43972d|5|1 745,0,0,0,0,0,0,0,0,0,0,0,0,0,1,746,
scooby_state_439720|62|1 746,0,0,0,0,0,0,0,0,0,0,0,0,0,0,746,
scooby_state_439753|36|1 745,0,0,0,0,1,0,0,0,0,0,0,0,0,0,746,
scooby_state_439720|6|1 746,0,0,0,0,0,0,0,0,0,0,0,0,0,0,746,
scooby_state_43972d|2|1 745,0,0,0,0,0,0,1,0,0,0,0,0,0,0,746,
scooby_state_439753|27|1 746,0,0,0,0,0,0,0,0,0,0,0,0,0,0,746,
scooby_state_43972d|34|1 745,0,0,0,0,0,0,0,0,0,0,0,1,0,0,746,
scooby_state_439720|44|1 745,0,0,0,0,0,1,0,0,0,0,0,0,0,0,746,
scooby_state_43972d|31|1 744,0,0,0,0,0,1,0,0,0,0,0,0,0,1,746,
scooby_state_439720|27|1 746,0,0,0,0,0,0,0,0,0,0,0,0,0,0,746,
scooby_state_43972d|28|1 744,0,0,0,0,0,1,0,0,0,0,1,0,0,0,746,
scooby_state_439720|14|1 745,0,0,0,0,0,0,0,0,0,0,1,0,0,0,746,
scooby_state_439753|25|1 745,0,0,0,0,0,0,0,0,0,0,0,0,0,1,746,
scooby_state_439753|30|1 744,1,0,0,0,0,0,0,0,0,0,1,0,0,0,746,
scooby_state_43972d|10|1 746,0,0,0,0,0,0,0,0,0,0,0,0,0,0,746,
scooby_state_43972d|43|1 745,0,0,0,0,0,0,1,0,0,0,0,0,0,0,746,
scooby_state_43972d|46|1 746,0,0,0,0,0,0,0,0,0,0,0,0,0,0,746,
scooby_state_43972d|56|1 743,0,0,1,0,0,0,0,1,0,0,0,1,0,0,746,
scooby_state_439720|2|1 742,0,0,0,1,1,0,0,0,0,0,1,0,0,1,746,
scooby_state_439753|19|1 745,0,0,0,0,0,0,0,0,0,0,0,0,0,1,746,
scooby_state_439753|63|1 743,1,0,0,0,0,0,0,0,0,0,1,1,0,0,746,
scooby_state_43972d|51|1 746,0,0,0,0,0,0,0,0,0,0,0,0,0,0,746,
scooby_state_43972d|14|1 744,0,0,0,0,1,0,1,0,0,0,0,0,0,0,746,
scooby_state_439720|15|1 745,0,0,0,0,0,0,0,0,0,0,0,1,0,0,746,
scooby_state_439753|45|1 745,0,0,0,0,0,0,0,0,0,0,0,0,1,0,746,
scooby_state_43972d|40|1 744,1,0,0,0,0,0,0,0,0,0,0,0,1,0,746,
scooby_state_439753|53|1 745,0,0,1,0,0,0,0,0,0,0,0,0,0,0,746,
scooby_state_439753|35|1 744,1,0,0,0,0,1,0,0,0,0,0,0,0,0,746,
scooby_state_439720|58|1 745,0,0,0,0,0,0,0,0,0,0,0,1,0,0,746,
scooby_state_439753|31|1 744,1,0,0,0,0,0,1,0,0,0,0,0,0,0,746,
scooby_state_439753|56|1 744,0,0,0,1,0,0,0,1,0,0,0,0,0,0,746,
scooby_state_439720|32|1 746,0,0,0,0,0,0,0,0,0,0,0,0,0,0,746,
scooby_state_43972d|8|1 746,0,0,0,0,0,0,0,0,0,0,0,0,0,0,746,
scooby_state_439753|15|1 745,0,1,0,0,0,0,0,0,0,0,0,0,0,0,746,
scooby_state_43972d|24|1 746,0,0,0,0,0,0,0,0,0,0,0,0,0,0,746,
scooby_state_439753|62|1 743,0,1,0,0,1,0,0,0,0,0,0,0,0,1,746,
scooby_state_439720|31|1 746,0,0,0,0,0,0,0,0,0,0,0,0,0,0,746,
scooby_state_439753|51|1 745,0,1,0,0,0,0,0,0,0,0,0,0,0,0,746,
scooby_state_439753|18|1 745,0,1,0,0,0,0,0,0,0,0,0,0,0,0,746,
scooby_state_43972d|55|1 745,0,0,0,0,0,0,0,0,0,0,0,0,1,0,746,
scooby_state_439720|35|1 742,1,0,0,0,0,0,1,1,0,0,0,0,1,0,746,
scooby_state_439753|6|1 744,0,0,0,0,0,0,0,0,0,0,0,1,1,0,746,
scooby_state_439753|47|1 746,0,0,0,0,0,0,0,0,0,0,0,0,0,0,746,
scooby_state_439720|19|1 746,0,0,0,0,0,0,0,0,0,0,0,0,0,0,746,
scooby_state_439720|39|1 746,0,0,0,0,0,0,0,0,0,0,0,0,0,0,746,
scooby_state_439753|8|1 745,0,0,0,0,0,1,0,0,0,0,0,0,0,0,746,
scooby_state_43972d|48|1 746,0,0,0,0,0,0,0,0,0,0,0,0,0,0,746,
scooby_state_439720|8|1 745,0,1,0,0,0,0,0,0,0,0,0,0,0,0,746,
scooby_state_439753|2|1 746,0,0,0,0,0,0,0,0,0,0,0,0,0,0,746,
scooby_state_43972d|27|1 746,0,0,0,0,0,0,0,0,0,0,0,0,0,0,746,
scooby_state_439753|4|1 743,0,0,0,0,0,1,1,0,0,0,0,1,0,0,746,
scooby_state_439720|57|1 746,0,0,0,0,0,0,0,0,0,0,0,0,0,0,746,
scooby_state_439720|7|1 745,1,0,0,0,0,0,0,0,0,0,0,0,0,0,746,
scooby_state_439720|37|1 746,0,0,0,0,0,0,0,0,0,0,0,0,0,0,746,
scooby_state_439753|52|1 745,0,0,1,0,0,0,0,0,0,0,0,0,0,0,746,
scooby_state_439d35|8|-3 745,0,0,0,0,1,0,0,0,0,0,0,0,0,0,746,
scooby_state_439720|41|1 746,0,0,0,0,0,0,0,0,0,0,0,0,0,0,746,
scooby_state_439720|30|1 745,1,0,0,0,0,0,0,0,0,0,0,0,0,0,746,
scooby_state_439753|49|1 744,0,0,0,0,0,0,0,1,0,0,0,1,0,0,746,
scooby_state_439720|23|1 741,1,0,1,1,0,0,0,0,0,0,1,0,1,0,746,
scooby_state_439753|34|1 746,0,0,0,0,0,0,0,0,0,0,0,0,0,0,746,
scooby_state_439753|39|1 744,0,0,0,1,0,0,0,0,0,0,1,0,0,0,746,
scooby_state_43972d|52|1 745,0,0,0,0,0,0,0,0,1,0,0,0,0,0,746,
scooby_state_439720|17|1 745,0,0,0,1,0,0,0,0,0,0,0,0,0,0,746,
scooby_state_439753|44|1 744,0,0,0,0,0,1,0,0,1,0,0,0,0,0,746,
scooby_state_439720|33|1 744,0,0,0,0,1,0,0,0,1,0,0,0,0,0,746,
scooby_state_439753|42|1 745,0,1,0,0,0,0,0,0,0,0,0,0,0,0,746,
scooby_state_43972d|42|1 743,0,0,1,0,0,0,0,0,0,0,1,1,0,0,746,
scooby_state_439720|51|1 744,0,0,0,1,0,0,1,0,0,0,0,0,0,0,746,
scooby_state_43972d|49|1 745,0,0,0,0,1,0,0,0,0,0,0,0,0,0,746,
scooby_state_439720|43|1 744,0,1,0,0,0,0,0,0,0,0,0,0,0,1,746,
scooby_state_43972d|19|1 745,1,0,0,0,0,0,0,0,0,0,0,0,0,0,746,
scooby_state_439753|1|1 744,0,0,0,0,0,0,0,1,0,0,0,1,0,0,746,
scooby_state_43972d|36|1 746,0,0,0,0,0,0,0,0,0,0,0,0,0,0,746,
scooby_state_439753|22|1 745,0,0,0,0,0,0,0,0,0,0,0,0,0,0,745,
scooby_state_439753|20|1 744,0,0,0,0,0,0,0,0,0,0,0,0,0,1,745,
scooby_state_439720|48|1 745,0,0,0,0,0,0,0,0,0,0,0,0,0,0,745,
scooby_state_439753|21|1 745,0,0,0,0,0,0,0,0,0,0,0,0,0,0,745,
scooby_state_439720|47|1 742,0,0,0,1,1,0,0,0,1,0,0,0,0,0,745,
scooby_state_4396c0|11|0 741,0,1,0,0,0,2,0,0,0,0,0,0,0,1,745,
scooby_state_43972d|61|1 744,0,0,0,0,0,0,0,0,0,0,1,0,0,0,745,
scooby_state_43972d|60|1 744,0,0,0,0,1,0,0,0,0,0,0,0,0,0,745,
scooby_state_439720|46|1 744,0,0,0,0,0,0,0,0,0,0,0,1,0,0,745,
scooby_state_43972d|62|1 744,0,0,0,1,0,0,0,0,0,0,0,0,0,0,745,
scooby_state_439d3d|10|2 741,0,0,1,0,0,0,0,0,2,0,0,0,0,0,744,
scooby_state_43a0c0|3|1 741,0,0,0,0,0,0,0,1,0,0,0,0,0,0,742,
scooby_state_43a103|4|1 738,0,0,2,1,0,0,0,0,0,0,1,0,0,0,742,
scooby_state_43a146|5|1 740,0,0,0,0,1,0,0,0,0,0,0,0,0,1,742,
scooby_state_43a183|6|1 740,0,0,0,0,0,1,1,0,0,0,0,0,0,0,742,
scooby_state_43a0ef|10|1 740,0,1,0,0,0,0,0,0,0,0,0,0,0,0,741,
scooby_state_43a158|62|1 741,0,0,0,0,0,0,0,0,0,0,0,0,0,0,741,
scooby_state_43a0d5|32|1 740,0,0,0,0,0,1,0,0,0,0,0,0,0,0,741,
scooby_state_43a0fd|40|1 741,0,0,0,0,0,0,0,0,0,0,0,0,0,0,741,
scooby_state_43a183|27|1 740,0,1,0,0,0,0,0,0,0,0,0,0,0,0,741,
scooby_state_43a103|6|1 741,0,0,0,0,0,0,0,0,0,0,0,0,0,0,741,
scooby_state_43a0c0|13|1 741,0,0,0,0,0,0,0,0,0,0,0,0,0,0,741,
scooby_state_439ed4|36|1 740,0,0,0,0,0,0,1,0,0,0,0,0,0,0,741,
scooby_state_43a17d|29|1 738,1,0,0,1,0,0,0,0,0,1,0,0,0,0,741,
scooby_state_43a0fd|60|1 740,0,0,0,0,0,0,0,0,1,0,0,0,0,0,741,
scooby_state_43a158|59|1 738,0,0,0,0,1,0,1,0,0,0,0,1,0,0,741,
scooby_state_43a0d9|12|1 741,0,0,0,0,0,0,0,0,0,0,0,0,0,0,741,
scooby_state_43a0d5|44|1 741,0,0,0,0,0,0,0,0,0,0,0,0,0,0,741,
scooby_state_43a17d|6|1 740,0,0,0,0,0,0,0,0,1,0,0,0,0,0,741,
scooby_state_43a0fd|41|1 741,0,0,0,0,0,0,0,0,0,0,0,0,0,0,741,
scooby_state_43a0ef|11|1 740,0,0,0,1,0,0,0,0,0,0,0,0,0,0,741,
scooby_state_43a0c0|12|1 740,0,0,0,0,0,0,0,0,1,0,0,0,0,0,741,
scooby_state_43a146|17|1 740,0,0,0,0,1,0,0,0,0,0,0,0,0,0,741,
scooby_state_43a0d9|8|1 741,0,0,0,0,0,0,0,0,0,0,0,0,0,0,741,
scooby_state_43a183|28|1 741,0,0,0,0,0,0,0,0,0,0,0,0,0,0,741,
scooby_state_43a183|21|1 741,0,0,0,0,0,0,0,0,0,0,0,0,0,0,741,
scooby_state_439ed4|48|1 741,0,0,0,0,0,0,0,0,0,0,0,0,0,0,741,
scooby_state_43a0ef|4|1 739,0,0,0,0,0,0,0,1,1,0,0,0,0,0,741,
scooby_state_43a103|7|1 738,0,0,0,1,0,0,0,0,0,1,0,0,0,1,741,
scooby_state_43a17d|30|1 741,0,0,0,0,0,0,0,0,0,0,0,0,0,0,741,
scooby_state_43a158|60|1 739,0,0,0,1,0,0,0,0,1,0,0,0,0,0,741,
scooby_state_43a146|20|1 739,0,0,0,0,0,0,0,0,1,0,1,0,0,0,741,
scooby_state_43a146|61|1 736,1,0,0,0,1,0,1,1,1,0,0,0,0,0,741,
scooby_state_43a0cf|42|1 741,0,0,0,0,0,0,0,0,0,0,0,0,0,0,741,
scooby_state_43a158|61|1 741,0,0,0,0,0,0,0,0,0,0,0,0,0,0,741,
scooby_state_43a0d5|30|1 741,0,0,0,0,0,0,0,0,0,0,0,0,0,0,741,
scooby_state_439ed0|63|1 738,1,0,0,0,0,0,1,0,0,1,0,0,0,0,741,
scooby_state_43a0c0|11|1 740,0,0,0,0,0,0,0,0,1,0,0,0,0,0,741,
scooby_state_43a146|62|1 740,0,0,0,0,1,0,0,0,0,0,0,0,0,0,741,
scooby_state_43a0ef|12|1 741,0,0,0,0,0,0,0,0,0,0,0,0,0,0,741,
scooby_state_43a0cf|43|1 740,0,0,0,0,0,0,1,0,0,0,0,0,0,0,741,
scooby_state_43a146|10|1 740,0,0,0,1,0,0,0,0,0,0,0,0,0,0,741,
scooby_state_43a146|56|1 741,0,0,0,0,0,0,0,0,0,0,0,0,0,0,741,
scooby_state_43a17d|21|1 739,0,0,0,0,0,1,0,0,0,0,0,0,1,0,741,
scooby_state_43a0ef|6|1 740,0,0,0,1,0,0,0,0,0,0,0,0,0,0,741,
scooby_state_43a183|23|1 736,0,0,0,0,0,0,0,0,2,2,0,0,1,0,741,
scooby_state_43a0d5|46|1 740,0,0,0,0,0,0,1,0,0,0,0,0,0,0,741,
scooby_state_43a0d5|38|1 740,0,1,0,0,0,0,0,0,0,0,0,0,0,0,741,
scooby_state_43a0d5|5|1 741,0,0,0,0,0,0,0,0,0,0,0,0,0,0,741,
scooby_state_43a0d5|14|1 738,0,0,0,0,0,0,1,0,0,0,2,0,0,0,741,
scooby_state_439ed0|33|1 741,0,0,0,0,0,0,0,0,0,0,0,0,0,0,741,
scooby_state_43a158|51|1 739,0,0,0,0,0,1,1,0,0,0,0,0,0,0,741,
scooby_state_43a0d9|3|1 741,0,0,0,0,0,0,0,0,0,0,0,0,0,0,741,
scooby_state_43a0c0|19|1 740,0,0,0,0,0,0,0,1,0,0,0,0,0,0,741,
scooby_state_439ed4|30|1 740,0,0,1,0,0,0,0,0,0,0,0,0,0,0,741,
scooby_state_439ed0|18|1 739,0,0,0,0,1,0,0,0,0,0,1,0,0,0,741,
scooby_state_43a183|52|1 741,0,0,0,0,0,0,0,0,0,0,0,0,0,0,741,
scooby_state_439ed4|49|1 740,0,0,0,0,0,0,0,1,0,0,0,0,0,0,741,
scooby_state_439ed0|58|1 739,0,0,1,0,0,0,0,1,0,0,0,0,0,0,741,
scooby_state_43a17d|5|1 739,0,0,0,0,0,0,1,0,0,0,0,0,0,1,741,
scooby_state_43a0c0|32|1 740,0,0,0,0,0,0,0,0,0,0,0,1,0,0,741,
scooby_state_43a0ef|5|1 740,1,0,0,0,0,0,0,0,0,0,0,0,0,0,741,
scooby_state_439ed4|9|1 741,0,0,0,0,0,0,0,0,0,0,0,0,0,0,741,
scooby_state_43a17d|24|1 740,0,0,0,1,0,0,0,0,0,0,0,0,0,0,741,
scooby_state_439ed4|58|1 740,0,0,1,0,0,0,0,0,0,0,0,0,0,0,741,
scooby_state_43a103|17|1 741,0,0,0,0,0,0,0,0,0,0,0,0,0,0,741,
scooby_state_43a103|11|1 738,0,0,0,0,0,0,1,0,0,1,1,0,0,0,741,
scooby_state_43a0ef|16|1 740,0,0,0,0,0,0,0,0,0,0,0,0,1,0,741,
scooby_state_439ed0|31|1 741,0,0,0,0,0,0,0,0,0,0,0,0,0,0,741,
scooby_state_43a0fd|52|1 738,0,0,0,0,0,1,0,1,0,1,0,0,0,0,741,
scooby_state_439ed4|47|1 740,0,1,0,0,0,0,0,0,0,0,0,0,0,0,741,
scooby_state_43a183|25|1 740,0,0,0,0,0,1,0,0,0,0,0,0,0,0,741,
scooby_state_43a0c0|10|1 741,0,0,0,0,0,0,0,0,0,0,0,0,0,0,741,
scooby_state_43a183|38|1 740,0,0,0,0,0,0,0,0,0,1,0,0,0,0,741,
scooby_state_43a0cf|40|1 741,0,0,0,0,0,0,0,0,0,0,0,0,0,0,741,
scooby_state_43a0ef|9|1 741,0,0,0,0,0,0,0,0,0,0,0,0,0,0,741,
scooby_state_43a183|26|1 736,0,1,0,1,1,1,0,1,0,0,0,0,0,0,741,
scooby_state_439ed4|27|1 741,0,0,0,0,0,0,0,0,0,0,0,0,0,0,741,
scooby_state_43a183|48|1 741,0,0,0,0,0,0,0,0,0,0,0,0,0,0,741,
scooby_state_43a0d9|6|1 740,0,0,0,0,0,0,0,0,1,0,0,0,0,0,741,
scooby_state_43a0d5|28|1 740,0,0,0,0,0,0,0,0,0,0,1,0,0,0,741,
scooby_state_43a0c0|9|1 738,0,0,0,1,0,0,0,0,0,1,0,0,1,0,741,
scooby_state_43a0fd|0|-63 739,0,0,0,0,0,0,0,0,0,0,2,0,0,0,741,
scooby_state_439ed0|12|1 741,0,0,0,0,0,0,0,0,0,0,0,0,0,0,741,
scooby_state_43a0fd|38|1 740,0,0,0,0,1,0,0,0,0,0,0,0,0,0,741,
scooby_state_43a0d9|19|1 740,1,0,0,0,0,0,0,0,0,0,0,0,0,0,741,
scooby_state_43a0d5|27|1 739,0,0,0,1,0,1,0,0,0,0,0,0,0,0,741,
scooby_state_43a103|1|1 741,0,0,0,0,0,0,0,0,0,0,0,0,0,0,741,
scooby_state_43a0ef|31|1 739,0,0,0,0,1,1,0,0,0,0,0,0,0,0,741,
scooby_state_43a17d|27|1 741,0,0,0,0,0,0,0,0,0,0,0,0,0,0,741,
scooby_state_43a0c0|8|1 741,0,0,0,0,0,0,0,0,0,0,0,0,0,0,741,
scooby_state_43a158|57|1 741,0,0,0,0,0,0,0,0,0,0,0,0,0,0,741,
scooby_state_43a0ef|7|1 740,0,0,0,0,0,0,0,0,0,0,1,0,0,0,741,
scooby_state_43a0fd|37|1 739,0,0,0,0,1,0,0,0,0,0,1,0,0,0,741,
scooby_state_43a0d9|4|1 740,0,0,0,0,0,0,0,0,0,0,0,0,1,0,741,
scooby_state_43a103|3|1 737,1,0,0,0,0,0,0,1,0,0,0,0,2,0,741,
scooby_state_43a146|57|1 740,0,1,0,0,0,0,0,0,0,0,0,0,0,0,741,
scooby_state_43a0c0|7|1 741,0,0,0,0,0,0,0,0,0,0,0,0,0,0,741,
scooby_state_43a0fd|36|1 740,0,0,0,1,0,0,0,0,0,0,0,0,0,0,741,
scooby_state_43a103|18|1 741,0,0,0,0,0,0,0,0,0,0,0,0,0,0,741,
scooby_state_43a0c0|5|1 739,1,0,0,0,0,0,0,0,1,0,0,0,0,0,741,
scooby_state_43a158|9|1 737,0,0,1,0,1,1,0,0,1,0,0,0,0,0,741,
scooby_state_43a0cf|61|1 739,0,0,0,1,0,0,1,0,0,0,0,0,0,0,741,
scooby_state_43a0c0|34|1 740,0,0,1,0,0,0,0,0,0,0,0,0,0,0,741,
scooby_state_43a0ef|23|1 740,0,0,0,1,0,0,0,0,0,0,0,0,0,0,741,
scooby_state_43a183|9|1 741,0,0,0,0,0,0,0,0,0,0,0,0,0,0,741,
scooby_state_43a0d9|20|1 741,0,0,0,0,0,0,0,0,0,0,0,0,0,0,741,
scooby_state_43a183|40|1 740,1,0,0,0,0,0,0,0,0,0,0,0,0,0,741,
scooby_state_43a0d5|42|1 741,0,0,0,0,0,0,0,0,0,0,0,0,0,0,741,
scooby_state_43a17d|42|1 741,0,0,0,0,0,0,0,0,0,0,0,0,0,0,741,
scooby_state_43a0c0|23|1 740,0,0,0,0,0,1,0,0,0,0,0,0,0,0,741,
scooby_state_43a0cf|53|1 740,0,0,0,0,0,0,0,1,0,0,0,0,0,0,741,
scooby_state_43a17d|40|1 740,0,0,0,1,0,0,0,0,0,0,0,0,0,0,741,
scooby_state_43a0d5|4|1 740,0,0,0,1,0,0,0,0,0,0,0,0,0,0,741,
scooby_state_43a0ef|26|1 741,0,0,0,0,0,0,0,0,0,0,0,0,0,0,741,
scooby_state_43a0c0|24|1 741,0,0,0,0,0,0,0,0,0,0,0,0,0,0,741,
scooby_state_43a17d|41|1 741,0,0,0,0,0,0,0,0,0,0,0,0,0,0,741,
scooby_state_43a0cf|37|1 740,0,0,0,1,0,0,0,0,0,0,0,0,0,0,741,
scooby_state_43a146|8|1 741,0,0,0,0,0,0,0,0,0,0,0,0,0,0,741,
scooby_state_43a0c0|22|1 739,0,0,0,0,0,0,0,0,0,0,0,1,1,0,741,
scooby_state_43a0cf|52|1 738,1,1,0,0,0,1,0,0,0,0,0,0,0,0,741,
scooby_state_43a0ef|21|1 740,0,0,0,1,0,0,0,0,0,0,0,0,0,0,741,
scooby_state_43a0fd|51|1 739,0,2,0,0,0,0,0,0,0,0,0,0,0,0,741,
scooby_state_43a0d9|18|1 740,0,0,1,0,0,0,0,0,0,0,0,0,0,0,741,
scooby_state_43a158|8|1 741,0,0,0,0,0,0,0,0,0,0,0,0,0,0,741,
scooby_state_43a0ef|32|1 739,0,0,0,0,0,1,0,0,1,0,0,0,0,0,741,
scooby_state_43a0d5|40|1 740,0,0,0,0,0,0,0,0,0,0,1,0,0,0,741,
scooby_state_43a0c0|21|1 739,0,0,0,0,1,1,0,0,0,0,0,0,0,0,741,
scooby_state_43a0cf|51|1 740,0,0,0,0,0,0,0,0,0,0,0,0,1,0,741,
scooby_state_43a0ef|20|1 741,0,0,0,0,0,0,0,0,0,0,0,0,0,0,741,
scooby_state_43a0cf|63|1 740,0,0,0,0,0,0,0,0,0,0,1,0,0,0,741,
scooby_state_43a0c0|6|1 738,0,0,0,0,1,1,0,1,0,0,0,0,0,0,741,
scooby_state_43a0c0|27|1 738,1,0,0,0,0,0,0,0,1,0,0,1,0,0,741,
scooby_state_43a0cf|57|1 741,0,0,0,0,0,0,0,0,0,0,0,0,0,0,741,
scooby_state_43a0d9|23|1 739,0,1,0,0,0,0,0,0,0,1,0,0,0,0,741,
scooby_state_43a146|59|1 741,0,0,0,0,0,0,0,0,0,0,0,0,0,0,741,
scooby_state_43a183|43|1 739,0,0,0,0,0,0,0,0,0,0,0,0,2,0,741,
scooby_state_43a0d9|24|1 740,0,0,0,0,0,0,0,1,0,0,0,0,0,0,741,
scooby_state_43a0cf|44|1 739,0,0,0,1,1,0,0,0,0,0,0,0,0,0,741,
scooby_state_43a17d|45|1 737,0,0,1,0,0,1,1,0,0,1,0,0,0,0,741,
scooby_state_43a103|22|1 740,0,0,0,0,0,0,0,0,0,0,0,0,0,1,741,
scooby_state_43a146|12|1 739,1,0,0,0,0,0,0,0,0,0,0,0,1,0,741,
scooby_state_43a0d5|45|1 738,0,0,0,0,0,0,1,0,0,1,0,0,0,1,741,
scooby_state_439ed0|48|1 741,0,0,0,0,0,0,0,0,0,0,0,0,0,0,741,
scooby_state_43a0c0|26|1 741,0,0,0,0,0,0,0,0,0,0,0,0,0,0,741,
scooby_state_43a17d|8|1 739,0,0,0,0,0,0,0,0,0,1,0,1,0,0,741,
scooby_state_43a158|11|1 741,0,0,0,0,0,0,0,0,0,0,0,0,0,0,741,
scooby_state_43a183|37|1 739,0,0,0,0,0,1,1,0,0,0,0,0,0,0,741,
scooby_state_43a0cf|56|1 741,0,0,0,0,0,0,0,0,0,0,0,0,0,0,741,
scooby_state_43a103|8|1 738,1,0,1,1,0,0,0,0,0,0,0,0,0,0,741,
scooby_state_43a0d9|22|1 741,0,0,0,0,0,0,0,0,0,0,0,0,0,0,741,
scooby_state_43a103|21|1 740,0,0,0,0,0,0,0,0,0,1,0,0,0,0,741,
scooby_state_43a17d|44|1 740,0,1,0,0,0,0,0,0,0,0,0,0,0,0,741,
scooby_state_439ed0|39|1 740,1,0,0,0,0,0,0,0,0,0,0,0,0,0,741,
scooby_state_43a158|10|1 741,0,0,0,0,0,0,0,0,0,0,0,0,0,0,741,
scooby_state_43a0cf|55|1 741,0,0,0,0,0,0,0,0,0,0,0,0,0,0,741,
scooby_state_43a0ef|24|1 740,0,0,0,0,0,0,0,0,0,0,0,0,0,1,741,
scooby_state_43a183|41|1 740,0,0,0,0,0,0,0,1,0,0,0,0,0,0,741,
scooby_state_43a0d9|21|1 737,0,0,0,0,1,0,1,1,0,0,1,0,0,0,741,
scooby_state_43a103|20|1 739,0,0,1,0,0,0,0,0,0,0,0,0,0,1,741,
scooby_state_43a17d|43|1 741,0,0,0,0,0,0,0,0,0,0,0,0,0,0,741,
scooby_state_43a0d5|43|1 739,0,0,1,0,0,0,0,0,0,0,1,0,0,0,741,
scooby_state_439ed0|10|1 739,0,0,0,0,0,0,1,0,0,0,1,0,0,0,741,
scooby_state_43a0fd|54|1 739,0,0,0,1,1,0,0,0,0,0,0,0,0,0,741,
scooby_state_43a183|33|1 740,0,0,0,0,0,0,0,0,1,0,0,0,0,0,741,
scooby_state_43a0fd|46|1 738,0,0,0,0,0,0,1,0,1,1,0,0,0,0,741,
scooby_state_43a0d9|13|1 739,0,0,0,0,1,0,1,0,0,0,0,0,0,0,741,
scooby_state_43a103|12|1 741,0,0,0,0,0,0,0,0,0,0,0,0,0,0,741,
scooby_state_43a158|52|1 739,0,0,0,0,0,0,0,0,0,0,0,1,1,0,741,
scooby_state_43a146|2|1 740,0,0,0,1,0,0,0,0,0,0,0,0,0,0,741,
scooby_state_439ed0|6|1 739,0,0,0,1,0,0,0,0,0,0,0,0,0,1,741,
scooby_state_43a0d5|35|1 738,1,1,0,0,0,0,0,0,0,0,0,0,0,1,741,
scooby_state_43a158|1|1 740,0,0,0,0,0,0,0,0,0,0,1,0,0,0,741,
scooby_state_43a0d5|29|1 739,0,0,0,0,0,0,0,0,0,0,1,1,0,0,741,
scooby_state_43a0c0|16|1 741,0,0,0,0,0,0,0,0,0,0,0,0,0,0,741,
scooby_state_43a0c0|0|0 740,0,0,0,0,0,1,0,0,0,0,0,0,0,0,741,
scooby_state_43a0ef|15|1 740,0,1,0,0,0,0,0,0,0,0,0,0,0,0,741,
scooby_state_43a183|61|1 741,0,0,0,0,0,0,0,0,0,0,0,0,0,0,741,
scooby_state_43a0fd|45|1 740,0,0,0,0,0,0,0,0,0,0,0,0,0,1,741,
scooby_state_43a103|13|1 741,0,0,0,0,0,0,0,0,0,0,0,0,0,0,741,
scooby_state_439ed4|23|1 739,0,0,1,0,0,0,0,1,0,0,0,0,0,0,741,
scooby_state_43a183|54|1 741,0,0,0,0,0,0,0,0,0,0,0,0,0,0,741,
scooby_state_43a183|12|1 741,0,0,0,0,0,0,0,0,0,0,0,0,0,0,741,
scooby_state_43a0d5|34|1 738,1,0,0,1,0,0,0,0,0,0,0,0,0,1,741,
[...]
scooby_state_410d80|54|0 1,0,0,0,0,0,0,0,0,0,0,0,0,0,0,1,
scooby_state_410e00|56|1 0,0,1,0,0,0,0,0,0,0,0,0,0,0,0,1,
scooby_state_43adea|2|2 1,0,0,0,0,0,0,0,0,0,0,0,0,0,0,1,
scooby_state_55fe18|56|-4 1,0,0,0,0,0,0,0,0,0,0,0,0,0,0,1,
scooby_state_41a300|12|1 1,0,0,0,0,0,0,0,0,0,0,0,0,0,0,1,
scooby_state_563540|61|0 1,0,0,0,0,0,0,0,0,0,0,0,0,0,0,1,
scooby_state_55f8b0|34|0 1,0,0,0,0,0,0,0,0,0,0,0,0,0,0,1,
scooby_state_41a58a|12|-42 1,0,0,0,0,0,0,0,0,0,0,0,0,0,0,1,
scooby_state_55f8c1|35|1 1,0,0,0,0,0,0,0,0,0,0,0,0,0,0,1,
scooby_state_411861|59|2 1,0,0,0,0,0,0,0,0,0,0,0,0,0,0,1,
scooby_state_55f902|36|1 1,0,0,0,0,0,0,0,0,0,0,0,0,0,0,1,
scooby_state_55f9e0|39|3 1,0,0,0,0,0,0,0,0,0,0,0,0,0,0,1,
scooby_state_55f8fb|2|0 1,0,0,0,0,0,0,0,0,0,0,0,0,0,0,1,
scooby_state_5603f5|6|0 1,0,0,0,0,0,0,0,0,0,0,0,0,0,0,1,
scooby_state_41a5b7|25|12 1,0,0,0,0,0,0,0,0,0,0,0,0,0,0,1,
scooby_state_55fa42|41|1 1,0,0,0,0,0,0,0,0,0,0,0,0,0,0,1,
scooby_state_55fab7|13|1 1,0,0,0,0,0,0,0,0,0,0,0,0,0,0,1,
scooby_state_41b241|9|1 1,0,0,0,0,0,0,0,0,0,0,0,0,0,0,1,
scooby_state_55fabf|60|1 1,0,0,0,0,0,0,0,0,0,0,0,0,0,0,1,
scooby_state_55feee|59|14 1,0,0,0,0,0,0,0,0,0,0,0,0,0,0,1,
scooby_state_55fe46|57|1 1,0,0,0,0,0,0,0,0,0,0,0,0,0,0,1,
scooby_state_563559|23|0 1,0,0,0,0,0,0,0,0,0,0,0,0,0,0,1,
scooby_state_563559|57|0 1,0,0,0,0,0,0,0,0,0,0,0,0,0,0,1,
scooby_state_563559|60|0 1,0,0,0,0,0,0,0,0,0,0,0,0,0,0,1,
scooby_state_563559|3|0 1,0,0,0,0,0,0,0,0,0,0,0,0,0,0,1,
scooby_state_43b225|8|0 1,0,0,0,0,0,0,0,0,0,0,0,0,0,0,1,
scooby_state_4cf840|33|0 1,0,0,0,0,0,0,0,0,0,0,0,0,0,0,1,
scooby_state_4cf849|3|0 1,0,0,0,0,0,0,0,0,0,0,0,0,0,0,1,
scooby_state_4cf92d|36|2 1,0,0,0,0,0,0,0,0,0,0,0,0,0,0,1,
scooby_state_43b241|9|1 1,0,0,0,0,0,0,0,0,0,0,0,0,0,0,1,
scooby_state_41a082|2|1 1,0,0,0,0,0,0,0,0,0,0,0,0,0,0,1,
scooby_state_561e6b|57|39 1,0,0,0,0,0,0,0,0,0,0,0,0,0,0,1,
scooby_state_561e84|58|1 1,0,0,0,0,0,0,0,0,0,0,0,0,0,0,1,
scooby_state_561dcf|55|-3 1,0,0,0,0,0,0,0,0,0,0,0,0,0,0,1,
scooby_state_562f41|61|1 1,0,0,0,0,0,0,0,0,0,0,0,0,0,0,1,
scooby_state_419e02|56|1 1,0,0,0,0,0,0,0,0,0,0,0,0,0,0,1,
scooby_state_419e06|54|0 1,0,0,0,0,0,0,0,0,0,0,0,0,0,0,1,
scooby_state_419e23|43|-11 1,0,0,0,0,0,0,0,0,0,0,0,0,0,0,1,
scooby_state_419e44|57|1 1,0,0,0,0,0,0,0,0,0,0,0,0,0,0,1,
scooby_state_419ec3|59|1 1,0,0,0,0,0,0,0,0,0,0,0,0,0,0,1,
scooby_state_419e4c|33|-14 1,0,0,0,0,0,0,0,0,0,0,0,0,0,0,1,
scooby_state_41187d|27|-2 1,0,0,0,0,0,0,0,0,0,0,0,0,0,0,1,
scooby_state_41a58a|9|-48 1,0,0,0,0,0,0,0,0,0,0,0,0,0,0,1,
scooby_state_41b2a4|4|-6 1,0,0,0,0,0,0,0,0,0,0,0,0,0,0,1,
scooby_state_419e44|11|8 1,0,0,0,0,0,0,0,0,0,0,0,0,0,0,1,
scooby_state_41a044|1|1 1,0,0,0,0,0,0,0,0,0,0,0,0,0,0,1,
scooby_state_41a3c1|15|1 1,0,0,0,0,0,0,0,0,0,0,0,0,0,0,1,
scooby_state_41a101|4|1 1,0,0,0,0,0,0,0,0,0,0,0,0,0,0,1,
scooby_state_41a200|8|1 1,0,0,0,0,0,0,0,0,0,0,0,0,0,0,1,
scooby_state_41a240|9|1 1,0,0,0,0,0,0,0,0,0,0,0,0,0,0,1,
scooby_state_41a285|10|1 1,0,0,0,0,0,0,0,0,0,0,0,0,0,0,1,
scooby_state_41a2c1|11|1 1,0,0,0,0,0,0,0,0,0,0,0,0,0,0,1,
scooby_state_56adc1|55|1 1,0,0,0,0,0,0,0,0,0,0,0,0,0,0,1,
scooby_state_41a2f0|27|0 1,0,0,0,0,0,0,0,0,0,0,0,0,0,0,1,
scooby_state_419c07|48|1 1,0,0,0,0,0,0,0,0,0,0,0,0,0,0,1,
scooby_state_41a5b7|35|24 1,0,0,0,0,0,0,0,0,0,0,0,0,0,0,1,
scooby_state_41a343|13|1 1,0,0,0,0,0,0,0,0,0,0,0,0,0,0,1,
scooby_state_41a400|16|1 1,0,0,0,0,0,0,0,0,0,0,0,0,0,0,1,
scooby_state_41a442|17|1 1,0,0,0,0,0,0,0,0,0,0,0,0,0,0,1,
scooby_state_41a4c0|19|1 1,0,0,0,0,0,0,0,0,0,0,0,0,0,0,1,
scooby_state_41a501|20|1 1,0,0,0,0,0,0,0,0,0,0,0,0,0,0,1,
scooby_state_55faa0|42|1 1,0,0,0,0,0,0,0,0,0,0,0,0,0,0,1,
scooby_state_419e82|58|1 1,0,0,0,0,0,0,0,0,0,0,0,0,0,0,1,
scooby_state_41b309|1|-29 1,0,0,0,0,0,0,0,0,0,0,0,0,0,0,1,
scooby_state_562ee0|33|0 1,0,0,0,0,0,0,0,0,0,0,0,0,0,0,1,
scooby_state_419b3f|15|0 1,0,0,0,0,0,0,0,0,0,0,0,0,0,0,1,
scooby_state_419b62|16|1 1,0,0,0,0,0,0,0,0,0,0,0,0,0,0,1,
scooby_state_419bfc|9|-7 1,0,0,0,0,0,0,0,0,0,0,0,0,0,0,1,
scooby_state_43a2c2|11|1 1,0,0,0,0,0,0,0,0,0,0,0,0,0,0,1,
scooby_state_419c1f|10|1 1,0,0,0,0,0,0,0,0,0,0,0,0,0,0,1,
scooby_state_41a2f0|29|0 1,0,0,0,0,0,0,0,0,0,0,0,0,0,0,1,
scooby_state_419b76|2|0 1,0,0,0,0,0,0,0,0,0,0,0,0,0,0,1,
scooby_state_43a341|13|1 1,0,0,0,0,0,0,0,0,0,0,0,0,0,0,1,
scooby_state_43a3c2|15|1 1,0,0,0,0,0,0,0,0,0,0,0,0,0,0,1,
scooby_state_419ba5|4|1 1,0,0,0,0,0,0,0,0,0,0,0,0,0,0,1,
scooby_state_419c6a|13|3 1,0,0,0,0,0,0,0,0,0,0,0,0,0,0,1,
scooby_state_419c75|14|1 1,0,0,0,0,0,0,0,0,0,0,0,0,0,0,1,
scooby_state_419c33|59|0 1,0,0,0,0,0,0,0,0,0,0,0,0,0,0,1,
scooby_state_43ae40|57|1 1,0,0,0,0,0,0,0,0,0,0,0,0,0,0,1,
scooby_state_419c56|60|1 1,0,0,0,0,0,0,0,0,0,0,0,0,0,0,1,
scooby_state_560ea8|58|2 1,0,0,0,0,0,0,0,0,0,0,0,0,0,0,1,
scooby_state_560ec0|59|1 1,0,0,0,0,0,0,0,0,0,0,0,0,0,0,1,
scooby_state_56150c|20|0 1,0,0,0,0,0,0,0,0,0,0,0,0,0,0,1,
scooby_state_560f44|61|1 1,0,0,0,0,0,0,0,0,0,0,0,0,0,0,1,
scooby_state_560fc2|63|1 1,0,0,0,0,0,0,0,0,0,0,0,0,0,0,1,
scooby_state_41b274|38|-7 1,0,0,0,0,0,0,0,0,0,0,0,0,0,0,1,
scooby_state_561080|2|2 1,0,0,0,0,0,0,0,0,0,0,0,0,0,0,1,
scooby_state_561128|4|2 1,0,0,0,0,0,0,0,0,0,0,0,0,0,0,1,
scooby_state_5611f8|7|3 1,0,0,0,0,0,0,0,0,0,0,0,0,0,0,1,
scooby_state_43a3e1|11|-52 1,0,0,0,0,0,0,0,0,0,0,0,0,0,0,1,
scooby_state_561203|8|1 1,0,0,0,0,0,0,0,0,0,0,0,0,0,0,1,
scooby_state_561400|16|8 1,0,0,0,0,0,0,0,0,0,0,0,0,0,0,1,
scooby_state_561043|1|-15 1,0,0,0,0,0,0,0,0,0,0,0,0,0,0,1,
scooby_state_561440|17|8 1,0,0,0,0,0,0,0,0,0,0,0,0,0,0,1,
scooby_state_43a5dd|46|26 1,0,0,0,0,0,0,0,0,0,0,0,0,0,0,1,
scooby_state_439e34|49|12 1,0,0,0,0,0,0,0,0,0,0,0,0,0,0,1,
scooby_state_439e34|45|4 1,0,0,0,0,0,0,0,0,0,0,0,0,0,0,1,
scooby_state_43a4c4|12|7 1,0,0,0,0,0,0,0,0,0,0,0,0,0,0,1,
scooby_state_43a548|0|-10 1,0,0,0,0,0,0,0,0,0,0,0,0,0,0,1,
scooby_state_439e30|20|0 1,0,0,0,0,0,0,0,0,0,0,0,0,0,0,1,
scooby_state_43a582|22|1 1,0,0,0,0,0,0,0,0,0,0,0,0,0,0,1,
scooby_state_439e34|49|3 1,0,0,0,0,0,0,0,0,0,0,0,0,0,0,1,
scooby_state_41a5b7|15|-28 1,0,0,0,0,0,0,0,0,0,0,0,0,0,0,1,
scooby_state_439fc5|60|-1 1,0,0,0,0,0,0,0,0,0,0,0,0,0,0,1,
scooby_state_41a5b7|1|-10 1,0,0,0,0,0,0,0,0,0,0,0,0,0,0,1,
scooby_state_41a5ae|3|-27 1,0,0,0,0,0,0,0,0,0,0,0,0,0,0,1,
scooby_state_439fc5|62|2 1,0,0,0,0,0,0,0,0,0,0,0,0,0,0,1,
scooby_state_402242|9|1 1,0,0,0,0,0,0,0,0,0,0,0,0,0,0,1,
scooby_state_43a3e1|20|-43 1,0,0,0,0,0,0,0,0,0,0,0,0,0,0,1,
scooby_state_43a3e7|0|-20 1,0,0,0,0,0,0,0,0,0,0,0,0,0,0,1,
scooby_state_439e34|38|4 1,0,0,0,0,0,0,0,0,0,0,0,0,0,0,1,
scooby_state_43a8c7|35|1 1,0,0,0,0,0,0,0,0,0,0,0,0,0,0,1,
scooby_state_439e30|21|0 1,0,0,0,0,0,0,0,0,0,0,0,0,0,0,1,
scooby_state_41a5b7|43|25 1,0,0,0,0,0,0,0,0,0,0,0,0,0,0,1,
scooby_state_4cf7c6|31|1 1,0,0,0,0,0,0,0,0,0,0,0,0,0,0,1,
scooby_state_439e34|49|2 1,0,0,0,0,0,0,0,0,0,0,0,0,0,0,1,
scooby_state_43a183|61|0 1,0,0,0,0,0,0,0,0,0,0,0,0,0,0,1,
scooby_state_43a231|6|-4 1,0,0,0,0,0,0,0,0,0,0,0,0,0,0,1,
scooby_state_43a3e1|21|-42 1,0,0,0,0,0,0,0,0,0,0,0,0,0,0,1,
scooby_state_43a3e1|43|1 1,0,0,0,0,0,0,0,0,0,0,0,0,0,0,1,
scooby_state_43a3e7|0|-21 1,0,0,0,0,0,0,0,0,0,0,0,0,0,0,1,
scooby_state_439dfe|63|0 1,0,0,0,0,0,0,0,0,0,0,0,0,0,0,1,
scooby_state_439fc5|62|0 1,0,0,0,0,0,0,0,0,0,0,0,0,0,0,1,
scooby_state_43a183|62|0 1,0,0,0,0,0,0,0,0,0,0,0,0,0,0,1,
scooby_state_439e30|23|0 1,0,0,0,0,0,0,0,0,0,0,0,0,0,0,1,
scooby_state_43a3e1|25|1 1,0,0,0,0,0,0,0,0,0,0,0,0,0,0,1,
scooby_state_439e34|49|6 1,0,0,0,0,0,0,0,0,0,0,0,0,0,0,1,
scooby_state_439e30|14|0 1,0,0,0,0,0,0,0,0,0,0,0,0,0,0,1,
scooby_state_439e34|49|9 1,0,0,0,0,0,0,0,0,0,0,0,0,0,0,1,
scooby_state_43a3e1|14|-49 1,0,0,0,0,0,0,0,0,0,0,0,0,0,0,1,
scooby_state_439e34|49|8 1,0,0,0,0,0,0,0,0,0,0,0,0,0,0,1,
scooby_state_439fc5|55|0 1,0,0,0,0,0,0,0,0,0,0,0,0,0,0,1,
scooby_state_43a183|55|0 1,0,0,0,0,0,0,0,0,0,0,0,0,0,0,1,
scooby_state_43a3e1|15|-48 1,0,0,0,0,0,0,0,0,0,0,0,0,0,0,1,
scooby_state_43a3e1|34|1 1,0,0,0,0,0,0,0,0,0,0,0,0,0,0,1,
scooby_state_43a3e1|2|1 1,0,0,0,0,0,0,0,0,0,0,0,0,0,0,1,
scooby_state_41a58a|10|-26 1,0,0,0,0,0,0,0,0,0,0,0,0,0,0,1,
scooby_state_439fc5|56|0 1,0,0,0,0,0,0,0,0,0,0,0,0,0,0,1,
scooby_state_563540|21|0 1,0,0,0,0,0,0,0,0,0,0,0,0,0,0,1,
scooby_state_43964a|2|-1 1,0,0,0,0,0,0,0,0,0,0,0,0,0,0,1,
scooby_state_43aa40|41|1 1,0,0,0,0,0,0,0,0,0,0,0,0,0,0,1,
scooby_state_439e30|17|0 1,0,0,0,0,0,0,0,0,0,0,0,0,0,0,1,
scooby_state_43a3e7|0|-23 1,0,0,0,0,0,0,0,0,0,0,0,0,0,0,1,
scooby_state_410dc3|55|1 1,0,0,0,0,0,0,0,0,0,0,0,0,0,0,1,
scooby_state_43a3e1|17|-46 1,0,0,0,0,0,0,0,0,0,0,0,0,0,0,1,
scooby_state_43a3e1|8|1 1,0,0,0,0,0,0,0,0,0,0,0,0,0,0,1,
scooby_state_439e34|49|5 1,0,0,0,0,0,0,0,0,0,0,0,0,0,0,1,
scooby_state_439690|26|-28 1,0,0,0,0,0,0,0,0,0,0,0,0,0,0,1,
scooby_state_439fc0|20|0 1,0,0,0,0,0,0,0,0,0,0,0,0,0,0,1,
scooby_state_410e41|57|1 1,0,0,0,0,0,0,0,0,0,0,0,0,0,0,1,
scooby_state_43a183|58|0 1,0,0,0,0,0,0,0,0,0,0,0,0,0,0,1,
scooby_state_43a5dd|58|2 1,0,0,0,0,0,0,0,0,0,0,0,0,0,0,1,
scooby_state_419bc4|47|1 1,0,0,0,0,0,0,0,0,0,0,0,0,0,0,1,
scooby_state_439fc0|21|0 1,0,0,0,0,0,0,0,0,0,0,0,0,0,0,1,
scooby_state_439fc5|59|-1 1,0,0,0,0,0,0,0,0,0,0,0,0,0,0,1,
scooby_state_439fc5|61|2 1,0,0,0,0,0,0,0,0,0,0,0,0,0,0,1,
scooby_state_43a183|59|0 1,0,0,0,0,0,0,0,0,0,0,0,0,0,0,1,
scooby_state_563559|50|1 1,0,0,0,0,0,0,0,0,0,0,0,0,0,0,1,
scooby_state_55fd60|58|0 1,0,0,0,0,0,0,0,0,0,0,0,0,0,0,1,
scooby_state_43a1c3|7|1 1,0,0,0,0,0,0,0,0,0,0,0,0,0,0,1,
scooby_state_41a684|26|1 1,0,0,0,0,0,0,0,0,0,0,0,0,0,0,1,
scooby_state_43a810|58|1 1,0,0,0,0,0,0,0,0,0,0,0,0,0,0,1,
scooby_state_43a203|8|1 1,0,0,0,0,0,0,0,0,0,0,0,0,0,0,1,
scooby_state_43a9c4|39|1 1,0,0,0,0,0,0,0,0,0,0,0,0,0,0,1,
scooby_state_43a86d|53|-5 1,0,0,0,0,0,0,0,0,0,0,0,0,0,0,1,
scooby_state_43a879|56|3 1,0,0,0,0,0,0,0,0,0,0,0,0,0,0,1,
scooby_state_43a8da|54|-2 1,0,0,0,0,0,0,0,0,0,0,0,0,0,0,1,
scooby_state_43aa81|42|1 1,0,0,0,0,0,0,0,0,0,0,0,0,0,0,1,
scooby_state_41a58a|5|-5 1,0,0,0,0,0,0,0,0,0,0,0,0,0,0,1,
scooby_state_4119cc|12|-4 1,0,0,0,0,0,0,0,0,0,0,0,0,0,0,1,
scooby_state_43aac7|43|1 1,0,0,0,0,0,0,0,0,0,0,0,0,0,0,1,
scooby_state_4117ed|29|-1 1,0,0,0,0,0,0,0,0,0,0,0,0,0,0,1,
scooby_state_402286|10|1 1,0,0,0,0,0,0,0,0,0,0,0,0,0,0,1,
scooby_state_43af41|61|1 1,0,0,0,0,0,0,0,0,0,0,0,0,0,0,1,
scooby_state_41a54a|4|0 1,0,0,0,0,0,0,0,0,0,0,0,0,0,0,1,
scooby_state_4022c3|11|1 1,0,0,0,0,0,0,0,0,0,0,0,0,0,0,1,
scooby_state_40247b|17|3 1,0,0,0,0,0,0,0,0,0,0,0,0,0,0,1,
scooby_state_43ab48|45|1 1,0,0,0,0,0,0,0,0,0,0,0,0,0,0,1,
scooby_state_43ab87|46|1 1,0,0,0,0,0,0,0,0,0,0,0,0,0,0,1,
scooby_state_43abc3|47|1 1,0,0,0,0,0,0,0,0,0,0,0,0,0,0,1,
scooby_state_4117f0|43|0 0,1,0,0,0,0,0,0,0,0,0,0,0,0,0,1,
scooby_state_411814|53|0 1,0,0,0,0,0,0,0,0,0,0,0,0,0,0,1,
scooby_state_411848|51|2 1,0,0,0,0,0,0,0,0,0,0,0,0,0,0,1,
scooby_state_43a080|2|1 1,0,0,0,0,0,0,0,0,0,0,0,0,0,0,1,
scooby_state_411850|52|1 1,0,0,0,0,0,0,0,0,0,0,0,0,0,0,1,
scooby_state_41187a|9|0 1,0,0,0,0,0,0,0,0,0,0,0,0,0,0,1,
scooby_state_43acc7|51|1 1,0,0,0,0,0,0,0,0,0,0,0,0,0,0,1,
scooby_state_43ad07|52|1 1,0,0,0,0,0,0,0,0,0,0,0,0,0,0,1,
scooby_state_43ad44|53|1 1,0,0,0,0,0,0,0,0,0,0,0,0,0,0,1,
scooby_state_43adca|55|1 1,0,0,0,0,0,0,0,0,0,0,0,0,0,0,1,
scooby_state_41a58a|5|-1 1,0,0,0,0,0,0,0,0,0,0,0,0,0,0,1,
scooby_state_439e30|24|0 1,0,0,0,0,0,0,0,0,0,0,0,0,0,0,1,
scooby_state_56ad81|54|1 1,0,0,0,0,0,0,0,0,0,0,0,0,0,0,1,
scooby_state_439fc0|26|0 1,0,0,0,0,0,0,0,0,0,0,0,0,0,0,1,
scooby_state_43a3e1|24|-39 1,0,0,0,0,0,0,0,0,0,0,0,0,0,0,1,
scooby_state_43a3e7|0|-24 1,0,0,0,0,0,0,0,0,0,0,0,0,0,0,1,
scooby_state_439e30|25|0 1,0,0,0,0,0,0,0,0,0,0,0,0,0,0,1,
scooby_state_439fc0|27|0 1,0,0,0,0,0,0,0,0,0,0,0,0,0,0,1,
scooby_state_4110c7|3|-40 1,0,0,0,0,0,0,0,0,0,0,0,0,0,0,1,
scooby_state_439fc5|1|0 1,0,0,0,0,0,0,0,0,0,0,0,0,0,0,1,
scooby_state_43a183|1|0 1,0,0,0,0,0,0,0,0,0,0,0,0,0,0,1,
scooby_state_43a3e1|25|-38 1,0,0,0,0,0,0,0,0,0,0,0,0,0,0,1,
scooby_state_43a3e1|9|1 1,0,0,0,0,0,0,0,0,0,0,0,0,0,0,1,
scooby_state_43a842|33|1 1,0,0,0,0,0,0,0,0,0,0,0,0,0,0,1,
scooby_state_41a602|24|1 1,0,0,0,0,0,0,0,0,0,0,0,0,0,0,1,
scooby_state_43a904|36|1 1,0,0,0,0,0,0,0,0,0,0,0,0,0,0,1,
scooby_state_41a542|21|1 1,0,0,0,0,0,0,0,0,0,0,0,0,0,0,1,
scooby_state_43a980|38|1 1,0,0,0,0,0,0,0,0,0,0,0,0,0,0,1,
scooby_state_43a7dc|55|-8 1,0,0,0,0,0,0,0,0,0,0,0,0,0,0,1,
scooby_state_4117a0|30|0 1,0,0,0,0,0,0,0,0,0,0,0,0,0,0,1,
scooby_state_4117c3|31|1 1,0,0,0,0,0,0,0,0,0,0,0,0,0,0,1,
scooby_state_43aec2|59|1 1,0,0,0,0,0,0,0,0,0,0,0,0,0,0,1,
scooby_state_402480|18|1 1,0,0,0,0,0,0,0,0,0,0,0,0,0,0,1,
scooby_state_41a5b7|13|-26 1,0,0,0,0,0,0,0,0,0,0,0,0,0,0,1,
scooby_state_411804|32|1 1,0,0,0,0,0,0,0,0,0,0,0,0,0,0,1,
scooby_state_439630|24|0 1,0,0,0,0,0,0,0,0,0,0,0,0,0,0,1,
scooby_state_411840|33|1 1,0,0,0,0,0,0,0,0,0,0,0,0,0,0,1,
scooby_state_411880|34|1 1,0,0,0,0,0,0,0,0,0,0,0,0,0,0,1,
scooby_state_4119c2|39|5 1,0,0,0,0,0,0,0,0,0,0,0,0,0,0,1,
scooby_state_411ae7|43|4 1,0,0,0,0,0,0,0,0,0,0,0,0,0,0,1,
scooby_state_43a804|57|2 1,0,0,0,0,0,0,0,0,0,0,0,0,0,0,1,

scooby_action_0_deg_dist 0,144,0,0,0,0,0,0,0,0,0,0,0,0,0,0,
scooby_action_22_deg_dist 0,147,0,0,0,0,0,0,0,0,0,0,0,0,0,0,
scooby_action_4_deg_dist 0,307,76,0,190,0,826,0,0,0,0,0,0,0,0,0,
scooby_action_1_deg_dist 0,59917,38078,0,93984,0,916336,0,0,0,0,0,0,0,0,0,
scooby_action_30_deg_dist 0,149,0,0,0,0,0,0,0,0,0,0,0,0,0,0,
scooby_action_3_deg_dist 0,179,0,0,0,0,0,0,0,0,0,0,0,0,0,0,
scooby_action_32_deg_dist 0,120,0,0,0,0,0,0,0,0,0,0,0,0,0,0,
scooby_action_5_deg_dist 0,135,0,0,0,0,0,0,0,0,0,0,0,0,0,0,
scooby_action_10_deg_dist 0,154,0,0,0,0,0,0,0,0,0,0,0,0,0,0,
scooby_action_-6_deg_dist 0,121,0,0,0,0,0,0,0,0,0,0,0,0,0,0,
scooby_action_11_deg_dist 0,133,0,0,0,0,0,0,0,0,0,0,0,0,0,0,
scooby_action_23_deg_dist 0,140,0,0,0,0,0,0,0,0,0,0,0,0,0,0,
scooby_action_-1_deg_dist 0,219,0,0,0,0,0,0,0,0,0,0,0,0,0,0,
scooby_action_12_deg_dist 0,143,0,0,0,0,0,0,0,0,0,0,0,0,0,0,
scooby_action_-3_deg_dist 0,135,0,0,0,0,0,0,0,0,0,0,0,0,0,0,

scooby_track_called 1111633
scooby_track_same_address 3791
scooby_track_evict 1107586

scooby_reward_demand_called 1111633
scooby_reward_demand_pt_not_found 39049
scooby_reward_demand_pt_found 1072584
scooby_reward_demand_pt_found_total 1072584
scooby_reward_demand_has_reward 356
scooby_reward_train_called 18007
scooby_reward_assign_reward_called 1107835
scooby_reward_no_pref 144
scooby_reward_incorrect 17863
scooby_reward_correct_untimely 997709
scooby_reward_correct_timely 74519
scooby_reward_out_of_bounds 17600
scooby_reward_tracker_hit 0

scooby_reward_none_low_bw 144
scooby_reward_none_high_bw 0
scooby_reward_incorrect_low_bw 17863
scooby_reward_incorrect_high_bw 0
scooby_reward_correct_untimely_low_bw 997709
scooby_reward_correct_untimely_high_bw 0
scooby_reward_correct_timely_low_bw 74519
scooby_reward_correct_timely_high_bw 0
scooby_reward_out_of_bounds_low_bw 17600
scooby_reward_out_of_bounds_high_bw 0
scooby_reward_tracker_hit_low_bw 0
scooby_reward_tracker_hit_high_bw 0

scooby_reward_1 0,17487,996382,73872,17147,0,
scooby_reward_3 0,35,120,15,7,0,
scooby_reward_4 0,126,893,292,84,0,
scooby_reward_5 0,8,92,20,13,0,
scooby_reward_10 0,18,37,68,30,0,
scooby_reward_11 0,16,30,61,24,0,
scooby_reward_12 0,15,31,70,25,0,
scooby_reward_22 0,18,19,47,63,0,
scooby_reward_23 0,15,16,43,65,0,
scooby_reward_30 0,61,0,24,62,0,
scooby_reward_32 0,48,1,7,63,0,
scooby_reward_-1 0,1,88,0,3,0,
scooby_reward_-3 0,7,0,0,7,0,
scooby_reward_-6 0,8,0,0,7,0,
scooby_reward_0 144,0,0,0,0,0,

scooby_train_called 1107585
scooby_train_compute_reward 18007

scooby_register_fill_called 801950
scooby_register_fill_set 75686
scooby_register_fill_set_total 75686

scooby_register_prefetch_hit_called 4756424
scooby_register_prefetch_hit_set 1023135
scooby_register_prefetch_hit_set_total 1023135

scooby_pref_issue_scooby 5660041

learning_engine_featurewise.action.called 1111633
learning_engine_featurewise.action.explore 2049
learning_engine_featurewise.action.exploit 1109584
learning_engine_featurewise.action.fallback 0
learning_engine_featurewise.action.dyn_fallback_saved_bw 0
learning_engine_featurewise.action.dyn_fallback_saved_bw_acc 523
learning_engine_featurewise.action.index_1_explored 135
learning_engine_featurewise.action.index_1_exploited 1108180
learning_engine_featurewise.action.index_3_explored 147
learning_engine_featurewise.action.index_3_exploited 32
learning_engine_featurewise.action.index_4_explored 142
learning_engine_featurewise.action.index_4_exploited 1257
learning_engine_featurewise.action.index_5_explored 131
learning_engine_featurewise.action.index_5_exploited 4
learning_engine_featurewise.action.index_10_explored 150
learning_engine_featurewise.action.index_10_exploited 4
learning_engine_featurewise.action.index_11_explored 130
learning_engine_featurewise.action.index_11_exploited 3
learning_engine_featurewise.action.index_12_explored 140
learning_engine_featurewise.action.index_12_exploited 3
learning_engine_featurewise.action.index_22_explored 145
learning_engine_featurewise.action.index_22_exploited 2
learning_engine_featurewise.action.index_23_explored 138
learning_engine_featurewise.action.index_23_exploited 2
learning_engine_featurewise.action.index_30_explored 147
learning_engine_featurewise.action.index_30_exploited 2
learning_engine_featurewise.action.index_32_explored 118
learning_engine_featurewise.action.index_32_exploited 2
learning_engine_featurewise.action.index_-1_explored 132
learning_engine_featurewise.action.index_-1_exploited 87
learning_engine_featurewise.action.index_-3_explored 135
learning_engine_featurewise.action.index_-3_exploited 0
learning_engine_featurewise.action.index_-6_explored 121
learning_engine_featurewise.action.index_-6_exploited 0
learning_engine_featurewise.action.index_0_explored 138
learning_engine_featurewise.action.index_0_exploited 6
learning_engine_featurewise.learn.called 1107585
learning_engine_featurewise.learn.su_skip_PC 0
learning_engine_featurewise.learn.su_skip_PC_Delta 0

learning_engine_featurewise.q_value_histogram.bucket_0 0
learning_engine_featurewise.q_value_histogram.bucket_1 0
learning_engine_featurewise.q_value_histogram.bucket_2 0
learning_engine_featurewise.q_value_histogram.bucket_3 0
learning_engine_featurewise.q_value_histogram.bucket_4 1969
learning_engine_featurewise.q_value_histogram.bucket_5 4023
learning_engine_featurewise.q_value_histogram.bucket_6 1103592
learning_engine_featurewise.q_value_histogram.bucket_7 0

learning_engine_featurewise.consensus.total 1109584
learning_engine_featurewise.consensus.feature_align_PC 1104176
learning_engine_featurewise.consensus.feature_align_PC_ratio 1.00
learning_engine_featurewise.consensus.feature_align_PC_Delta 1109231
learning_engine_featurewise.consensus.feature_align_PC_Delta_ratio 1.00
learning_engine_featurewise.consensus.feature_align_all 1103823
learning_engine_featurewise.consensus.feature_align_all_ratio 0.99

learning_engine_featurewise.feature_PC_min_weight 1000000.00000000
learning_engine_featurewise.feature_PC_max_weight 0.00000000
learning_engine_featurewise.feature_PC_Delta_min_weight 1000000.00000000
learning_engine_featurewise.feature_PC_Delta_max_weight 0.00000000
unique_pcs 447
unique_pages 11773
unique_trigger_pcs 111
total_bitmaps_seen 0
unique_bitmaps_seen 0

scooby_bw_epochs 378752
scooby_bw_level_0 314478
scooby_bw_level_1 51126
scooby_bw_level_2 9016
scooby_bw_level_3 4132

scooby_ipc_epochs 0
scooby_ipc_level_0 0
scooby_ipc_level_1 0
scooby_ipc_level_2 0
scooby_ipc_level_3 0

scooby_cache_acc_epochs 93482
scooby_cache_acc_level_0 303
scooby_cache_acc_level_1 3543
scooby_cache_acc_level_2 4526
scooby_cache_acc_level_3 5278
scooby_cache_acc_level_4 5915
scooby_cache_acc_level_5 5465
scooby_cache_acc_level_6 6896
scooby_cache_acc_level_7 6864
scooby_cache_acc_level_8 11798
scooby_cache_acc_level_9 42894

Channel_0_RQ_row_buffer_hit 218142
Channel_0_RQ_row_buffer_miss 287501
Channel_0_WQ_row_buffer_hit 44727
Channel_0_WQ_row_buffer_miss 150853
Channel_0_WQ_full 526
Channel_0_dbus_congested 236930

avg_congested_cycle 10

DRAM_bw_pochs 378752
DRAM_bw_level_0 314478
DRAM_bw_level_1 51126
DRAM_bw_level_2 9016
DRAM_bw_level_3 4132
