*************************************************
   ChampSim Multicore Out-of-Order Simulator
   Last compiled: Feb  6 2025 20:33:19
*************************************************
parsing config file: /home/wzz/Pythia/config/dspatch.ini

perceptron-multi-multi-no-ship-1core: src/main.cc:668: int main(int, char**): Assertion `false' failed.
