*************************************************
   ChampSim Multicore Out-of-Order Simulator
   Last compiled: Feb  6 2025 20:33:19
*************************************************
parsing config file: /home/wzz/Pythia/config/pythia.ini

trace_0 /home/wzz/Pythia/traces/cassandra_phase0_core0.trace.xz
adding L2C_PREFETCHER: Scooby
Initialize SHIP state
warmup_instructions 40000000
simulation_instructions 100000000
champsim_seed 2184
measure_ipc 0
measure_ipc_epoch 1000
measure_dram_bw 1
measure_dram_bw_epoch 256
measure_cache_acc 1
measure_cache_acc_epoch 1024
l1d_perfect 0
l2c_perfect 0
llc_perfect 0
l1d_semi_perfect 0
l2c_semi_perfect 0
llc_semi_perfect 0
semi_perfect_cache_page_buffer_size 64

num_cpus 1
cpu_freq 4000
dram_io_freq 2400
page_size 4096
block_size 64
max_read_per_cycle 8
max_fill_per_cycle 1
dram_channels 1
log2_dram_channels 0
dram_ranks 1
dram_banks 8
dram_rows 65536
dram_columns 128
dram_row_size 8
dram_size 4096
dram_pages 1048576

fetch_width 6
decode_width 6
exec_width 4
lq_width 2
sq_width 2
retire_width 4
scheduler_size 128
branch_mispredict_penalty 20
rob_size 256
lq_size 72
sq_size 56
num_instr_destinations_sparc 4
num_instr_destinations 2
num_instr_sources 4

itlb_set 16
itlb_way 8
itlb_rq_size 16
itlb_wq_size 16
itlb_pq_size 0
itlb_mshr_size 8
itlb_latency 1

dtlb_set 16
dtlb_way 4
dtlb_rq_size 16
dtlb_wq_size 16
dtlb_pq_size 0
dtlb_mshr_size 8
dtlb_latency 1

stlb_set 128
stlb_way 12
stlb_rq_size 32
stlb_wq_size 32
stlb_pq_size 0
stlb_mshr_size 16
stlb_latency 8

l1i_size 32
l1i_set 64
l1i_way 8
l1i_rq_size 64
l1i_wq_size 64
l1i_pq_size 8
l1i_mshr_size 8
l1i_latency 1

l1d_size 32
l1d_set 64
l1d_way 8
l1d_rq_size 64
l1d_wq_size 64
l1d_pq_size 8
l1d_mshr_size 16
l1d_latency 4

l2c_size 256
l2c_set 512
l2c_way 8
l2c_rq_size 32
l2c_wq_size 32
l2c_pq_size 32
l2c_mshr_size 32
l2c_latency 10

llc_size 2048
llc_set 2048
llc_way 16
llc_rq_size 32
llc_wq_size 32
llc_pq_size 32
llc_mshr_size 64
llc_latency 20

dram_channel_width 8
dram_wq_size 64
dram_rq_size 64
tRP 15
tRCD 15
tCAS 12.5
dram_dbus_turn_around_time 30
dram_write_high_wm 56
dram_write_low_wm 48
min_dram_writes_per_switch 16
dram_mtps 2400
dram_dbus_return_time 13

scooby_alpha 0.0065088
scooby_gamma 0.556301
scooby_epsilon 0.00182284
scooby_state_num_bits 10
scooby_max_states 1024
scooby_seed 200
scooby_policy EGreedy
scooby_learning_type SARSA
scooby_actions 1,3,4,5,10,11,12,22,23,30,32,-1,-3,-6,0,
scooby_max_actions 15
scooby_pt_size 256
scooby_st_size 64
scooby_max_pcs 5
scooby_max_offsets 5
scooby_max_deltas 5
scooby_reward_none -4
scooby_reward_incorrect -8
scooby_reward_correct_untimely 12
scooby_reward_correct_timely 20
scooby_brain_zero_init 0
scooby_enable_reward_all 0
scooby_enable_track_multiple 0
scooby_enable_reward_out_of_bounds 1
scooby_reward_out_of_bounds -12
scooby_state_type 1
scooby_state_hash_type 11
scooby_access_debug 0
scooby_print_access_debug 0
scooby_print_access_debug_pc deadbeef
scooby_print_access_debug_pc_count 0
scooby_print_trace 0
scooby_enable_state_action_stats 1
scooby_enable_reward_tracker_hit 0
scooby_reward_tracker_hit -2
scooby_enable_featurewise_engine 1
scooby_pref_degree 1
scooby_enable_dyn_degree 1
scooby_max_to_avg_q_thresholds 0.5,1,2,
scooby_dyn_degrees 1,2,4,4,
scooby_multi_deg_select_type 2
scooby_last_pref_offset_conf_thresholds 1,3,8,
scooby_dyn_degrees_type2 1,2,4,6,
scooby_action_tracker_size 2
scooby_high_bw_thresh 4
scooby_enable_hbw_reward 1
scooby_reward_hbw_correct_timely 20
scooby_reward_hbw_correct_untimely 12
scooby_reward_hbw_incorrect -14
scooby_reward_hbw_none -2
scooby_reward_hbw_out_of_bounds -12
scooby_reward_hbw_tracker_hit -2
scooby_last_pref_offset_conf_thresholds_hbw 1,3,8,
scooby_dyn_degrees_type2_hbw 1,2,4,6,

le_enable_trace 0
le_trace_interval 0
le_trace_file_name 
le_trace_state 0
le_enable_score_plot 0
le_plot_file_name 
le_plot_actions 
le_enable_action_trace 0
le_action_trace_interval 0
le_action_trace_name 
le_enable_action_plot 0

le_featurewise_active_features PC, PC_Delta
le_featurewise_num_tilings 3,3,
le_featurewise_num_tiles 128,128,
le_featurewise_hash_types 2,2,
le_featurewise_enable_tiling_offset 1,1,
le_featurewise_max_q_thresh 0.5
le_featurewise_enable_action_fallback 1
le_featurewise_feature_weights 1,1,
le_featurewise_enable_dynamic_weight 0
le_featurewise_weight_gradient 0.001
le_featurewise_disable_adjust_weight_all_features_align 1
le_featurewise_selective_update 0
le_featurewise_pooling_type 2
le_featurewise_enable_dyn_action_fallback 1
le_featurewise_bw_acc_check_level 1
le_featurewise_acc_thresh 2
le_featurewise_enable_trace 0
le_featurewise_trace_feature_type 0
le_featurewise_trace_feature 
le_featurewise_trace_interval 0
le_featurewise_trace_record_count 0
le_featurewise_trace_file_name 
le_featurewise_enable_score_plot 0
le_featurewise_plot_actions 
le_featurewise_plot_file_name 


Heartbeat CPU  0 instructions:    1000000 cycles:     534430 heartbeat IPC: 1.87115 cumulative IPC: 1.87115 (Simulation time: 0 hr 0 min 1 sec) 
Heartbeat CPU  0 instructions:    2000000 cycles:     903869 heartbeat IPC: 2.70681 cumulative IPC: 2.21271 (Simulation time: 0 hr 0 min 1 sec) 
Heartbeat CPU  0 instructions:    3000003 cycles:    1601333 heartbeat IPC: 1.43377 cumulative IPC: 1.87344 (Simulation time: 0 hr 0 min 3 sec) 
Heartbeat CPU  0 instructions:    4000000 cycles:    2009588 heartbeat IPC: 2.44944 cumulative IPC: 1.99046 (Simulation time: 0 hr 0 min 4 sec) 
Heartbeat CPU  0 instructions:    5000001 cycles:    2384852 heartbeat IPC: 2.66479 cumulative IPC: 2.09657 (Simulation time: 0 hr 0 min 4 sec) 
Heartbeat CPU  0 instructions:    6000002 cycles:    2709384 heartbeat IPC: 3.08136 cumulative IPC: 2.21453 (Simulation time: 0 hr 0 min 5 sec) 
Heartbeat CPU  0 instructions:    7000000 cycles:    3035884 heartbeat IPC: 3.06278 cumulative IPC: 2.30575 (Simulation time: 0 hr 0 min 6 sec) 
Heartbeat CPU  0 instructions:    8000000 cycles:    3354862 heartbeat IPC: 3.13501 cumulative IPC: 2.38460 (Simulation time: 0 hr 0 min 7 sec) 
Heartbeat CPU  0 instructions:    9000001 cycles:    3678189 heartbeat IPC: 3.09285 cumulative IPC: 2.44686 (Simulation time: 0 hr 0 min 8 sec) 
Heartbeat CPU  0 instructions:   10000000 cycles:    4081577 heartbeat IPC: 2.47900 cumulative IPC: 2.45003 (Simulation time: 0 hr 0 min 9 sec) 
Heartbeat CPU  0 instructions:   11000001 cycles:    4594780 heartbeat IPC: 1.94855 cumulative IPC: 2.39402 (Simulation time: 0 hr 0 min 10 sec) 
Heartbeat CPU  0 instructions:   12000000 cycles:    4933575 heartbeat IPC: 2.95163 cumulative IPC: 2.43231 (Simulation time: 0 hr 0 min 11 sec) 
Heartbeat CPU  0 instructions:   13000001 cycles:    5258892 heartbeat IPC: 3.07393 cumulative IPC: 2.47200 (Simulation time: 0 hr 0 min 12 sec) 
Heartbeat CPU  0 instructions:   14000000 cycles:    5659550 heartbeat IPC: 2.49589 cumulative IPC: 2.47369 (Simulation time: 0 hr 0 min 13 sec) 
Heartbeat CPU  0 instructions:   15000000 cycles:    6002504 heartbeat IPC: 2.91584 cumulative IPC: 2.49896 (Simulation time: 0 hr 0 min 14 sec) 
Heartbeat CPU  0 instructions:   16000000 cycles:    6326156 heartbeat IPC: 3.08974 cumulative IPC: 2.52918 (Simulation time: 0 hr 0 min 14 sec) 
Heartbeat CPU  0 instructions:   17000003 cycles:    6704314 heartbeat IPC: 2.64441 cumulative IPC: 2.53568 (Simulation time: 0 hr 0 min 15 sec) 
Heartbeat CPU  0 instructions:   18000001 cycles:    7042196 heartbeat IPC: 2.95961 cumulative IPC: 2.55602 (Simulation time: 0 hr 0 min 16 sec) 
Heartbeat CPU  0 instructions:   19000003 cycles:    7357867 heartbeat IPC: 3.16786 cumulative IPC: 2.58227 (Simulation time: 0 hr 0 min 17 sec) 
Heartbeat CPU  0 instructions:   20000000 cycles:    7687812 heartbeat IPC: 3.03080 cumulative IPC: 2.60152 (Simulation time: 0 hr 0 min 18 sec) 
Heartbeat CPU  0 instructions:   21000000 cycles:    8011613 heartbeat IPC: 3.08832 cumulative IPC: 2.62120 (Simulation time: 0 hr 0 min 19 sec) 
Heartbeat CPU  0 instructions:   22000001 cycles:    8335523 heartbeat IPC: 3.08728 cumulative IPC: 2.63931 (Simulation time: 0 hr 0 min 20 sec) 
Heartbeat CPU  0 instructions:   23000003 cycles:    8707234 heartbeat IPC: 2.69027 cumulative IPC: 2.64148 (Simulation time: 0 hr 0 min 21 sec) 
Heartbeat CPU  0 instructions:   24000000 cycles:    9156138 heartbeat IPC: 2.22764 cumulative IPC: 2.62119 (Simulation time: 0 hr 0 min 22 sec) 
Heartbeat CPU  0 instructions:   25000003 cycles:    9480055 heartbeat IPC: 3.08722 cumulative IPC: 2.63712 (Simulation time: 0 hr 0 min 23 sec) 
Heartbeat CPU  0 instructions:   26000000 cycles:    9806371 heartbeat IPC: 3.06450 cumulative IPC: 2.65134 (Simulation time: 0 hr 0 min 24 sec) 
Heartbeat CPU  0 instructions:   27000000 cycles:   10130268 heartbeat IPC: 3.08740 cumulative IPC: 2.66528 (Simulation time: 0 hr 0 min 25 sec) 
Heartbeat CPU  0 instructions:   28000000 cycles:   10453698 heartbeat IPC: 3.09186 cumulative IPC: 2.67848 (Simulation time: 0 hr 0 min 25 sec) 
Heartbeat CPU  0 instructions:   29000001 cycles:   10775772 heartbeat IPC: 3.10488 cumulative IPC: 2.69122 (Simulation time: 0 hr 0 min 26 sec) 
Heartbeat CPU  0 instructions:   30000002 cycles:   11099279 heartbeat IPC: 3.09113 cumulative IPC: 2.70288 (Simulation time: 0 hr 0 min 27 sec) 
Heartbeat CPU  0 instructions:   31000003 cycles:   11479785 heartbeat IPC: 2.62808 cumulative IPC: 2.70040 (Simulation time: 0 hr 0 min 28 sec) 
Heartbeat CPU  0 instructions:   32000000 cycles:   11853419 heartbeat IPC: 2.67641 cumulative IPC: 2.69964 (Simulation time: 0 hr 0 min 29 sec) 
Heartbeat CPU  0 instructions:   33000000 cycles:   12221253 heartbeat IPC: 2.71862 cumulative IPC: 2.70021 (Simulation time: 0 hr 0 min 30 sec) 
Heartbeat CPU  0 instructions:   34000003 cycles:   12672928 heartbeat IPC: 2.21399 cumulative IPC: 2.68288 (Simulation time: 0 hr 0 min 31 sec) 
Heartbeat CPU  0 instructions:   35000000 cycles:   13006251 heartbeat IPC: 3.00008 cumulative IPC: 2.69101 (Simulation time: 0 hr 0 min 32 sec) 
Heartbeat CPU  0 instructions:   36000000 cycles:   13325290 heartbeat IPC: 3.13441 cumulative IPC: 2.70163 (Simulation time: 0 hr 0 min 33 sec) 
Heartbeat CPU  0 instructions:   37000001 cycles:   13646558 heartbeat IPC: 3.11267 cumulative IPC: 2.71131 (Simulation time: 0 hr 0 min 34 sec) 
Heartbeat CPU  0 instructions:   38000003 cycles:   14024629 heartbeat IPC: 2.64501 cumulative IPC: 2.70952 (Simulation time: 0 hr 0 min 35 sec) 
Heartbeat CPU  0 instructions:   39000002 cycles:   14349212 heartbeat IPC: 3.08087 cumulative IPC: 2.71792 (Simulation time: 0 hr 0 min 36 sec) 
Heartbeat CPU  0 instructions:   40000000 cycles:   14673979 heartbeat IPC: 3.07912 cumulative IPC: 2.72591 (Simulation time: 0 hr 0 min 36 sec) 

Warmup complete CPU  0 instructions:   40000001 cycles:   14673980 (Simulation time: 0 hr 0 min 36 sec) 

Heartbeat CPU  0 instructions:   41000003 cycles:   17221019 heartbeat IPC: 0.39261 cumulative IPC: 0.39261 (Simulation time: 0 hr 0 min 38 sec) 
Heartbeat CPU  0 instructions:   42000002 cycles:   21458058 heartbeat IPC: 0.23601 cumulative IPC: 0.29481 (Simulation time: 0 hr 0 min 39 sec) 
Heartbeat CPU  0 instructions:   43000003 cycles:   23858675 heartbeat IPC: 0.41656 cumulative IPC: 0.32663 (Simulation time: 0 hr 0 min 40 sec) 
Heartbeat CPU  0 instructions:   44000000 cycles:   26748752 heartbeat IPC: 0.34601 cumulative IPC: 0.33127 (Simulation time: 0 hr 0 min 41 sec) 
Heartbeat CPU  0 instructions:   45000000 cycles:   29774847 heartbeat IPC: 0.33046 cumulative IPC: 0.33111 (Simulation time: 0 hr 0 min 43 sec) 
Heartbeat CPU  0 instructions:   46000000 cycles:   32418033 heartbeat IPC: 0.37833 cumulative IPC: 0.33814 (Simulation time: 0 hr 0 min 44 sec) 
Heartbeat CPU  0 instructions:   47000000 cycles:   34993397 heartbeat IPC: 0.38829 cumulative IPC: 0.34450 (Simulation time: 0 hr 0 min 45 sec) 
Heartbeat CPU  0 instructions:   48000000 cycles:   37544039 heartbeat IPC: 0.39206 cumulative IPC: 0.34980 (Simulation time: 0 hr 0 min 46 sec) 
Heartbeat CPU  0 instructions:   49000003 cycles:   40124867 heartbeat IPC: 0.38747 cumulative IPC: 0.35362 (Simulation time: 0 hr 0 min 47 sec) 
Heartbeat CPU  0 instructions:   50000002 cycles:   41720261 heartbeat IPC: 0.62680 cumulative IPC: 0.36974 (Simulation time: 0 hr 0 min 48 sec) 
Heartbeat CPU  0 instructions:   51000003 cycles:   43823479 heartbeat IPC: 0.47546 cumulative IPC: 0.37737 (Simulation time: 0 hr 0 min 49 sec) 
Heartbeat CPU  0 instructions:   52000000 cycles:   46447283 heartbeat IPC: 0.38112 cumulative IPC: 0.37768 (Simulation time: 0 hr 0 min 50 sec) 
Heartbeat CPU  0 instructions:   53000001 cycles:   49480393 heartbeat IPC: 0.32969 cumulative IPC: 0.37349 (Simulation time: 0 hr 0 min 52 sec) 
Heartbeat CPU  0 instructions:   54000000 cycles:   52484433 heartbeat IPC: 0.33288 cumulative IPC: 0.37027 (Simulation time: 0 hr 0 min 53 sec) 
Heartbeat CPU  0 instructions:   55000000 cycles:   55446961 heartbeat IPC: 0.33755 cumulative IPC: 0.36789 (Simulation time: 0 hr 0 min 54 sec) 
Heartbeat CPU  0 instructions:   56000000 cycles:   58302821 heartbeat IPC: 0.35016 cumulative IPC: 0.36673 (Simulation time: 0 hr 0 min 55 sec) 
Heartbeat CPU  0 instructions:   57000000 cycles:   61103409 heartbeat IPC: 0.35707 cumulative IPC: 0.36615 (Simulation time: 0 hr 0 min 56 sec) 
Heartbeat CPU  0 instructions:   58000000 cycles:   63919175 heartbeat IPC: 0.35514 cumulative IPC: 0.36552 (Simulation time: 0 hr 0 min 58 sec) 
Heartbeat CPU  0 instructions:   59000003 cycles:   66738600 heartbeat IPC: 0.35468 cumulative IPC: 0.36493 (Simulation time: 0 hr 0 min 59 sec) 
Heartbeat CPU  0 instructions:   60000000 cycles:   69556884 heartbeat IPC: 0.35482 cumulative IPC: 0.36441 (Simulation time: 0 hr 1 min 0 sec) 
Heartbeat CPU  0 instructions:   61000003 cycles:   72613156 heartbeat IPC: 0.32720 cumulative IPC: 0.36245 (Simulation time: 0 hr 1 min 1 sec) 
Heartbeat CPU  0 instructions:   62000002 cycles:   75635423 heartbeat IPC: 0.33088 cumulative IPC: 0.36088 (Simulation time: 0 hr 1 min 2 sec) 
Heartbeat CPU  0 instructions:   63000000 cycles:   78308670 heartbeat IPC: 0.37408 cumulative IPC: 0.36144 (Simulation time: 0 hr 1 min 4 sec) 
Heartbeat CPU  0 instructions:   64000000 cycles:   80985660 heartbeat IPC: 0.37355 cumulative IPC: 0.36193 (Simulation time: 0 hr 1 min 5 sec) 
Heartbeat CPU  0 instructions:   65000000 cycles:   83343601 heartbeat IPC: 0.42410 cumulative IPC: 0.36406 (Simulation time: 0 hr 1 min 6 sec) 
Heartbeat CPU  0 instructions:   66000000 cycles:   86460475 heartbeat IPC: 0.32083 cumulative IPC: 0.36219 (Simulation time: 0 hr 1 min 7 sec) 
Heartbeat CPU  0 instructions:   67000002 cycles:   89097570 heartbeat IPC: 0.37921 cumulative IPC: 0.36279 (Simulation time: 0 hr 1 min 8 sec) 
Heartbeat CPU  0 instructions:   68000000 cycles:   92108658 heartbeat IPC: 0.33211 cumulative IPC: 0.36160 (Simulation time: 0 hr 1 min 10 sec) 
Heartbeat CPU  0 instructions:   69000002 cycles:   94637429 heartbeat IPC: 0.39545 cumulative IPC: 0.36267 (Simulation time: 0 hr 1 min 11 sec) 
Heartbeat CPU  0 instructions:   70000001 cycles:   96930044 heartbeat IPC: 0.43618 cumulative IPC: 0.36471 (Simulation time: 0 hr 1 min 12 sec) 
Heartbeat CPU  0 instructions:   71000002 cycles:   99104316 heartbeat IPC: 0.45992 cumulative IPC: 0.36717 (Simulation time: 0 hr 1 min 13 sec) 
Heartbeat CPU  0 instructions:   72000000 cycles:  101721280 heartbeat IPC: 0.38212 cumulative IPC: 0.36762 (Simulation time: 0 hr 1 min 14 sec) 
Heartbeat CPU  0 instructions:   73000000 cycles:  104563366 heartbeat IPC: 0.35185 cumulative IPC: 0.36712 (Simulation time: 0 hr 1 min 15 sec) 
Heartbeat CPU  0 instructions:   74000002 cycles:  107027498 heartbeat IPC: 0.40582 cumulative IPC: 0.36815 (Simulation time: 0 hr 1 min 17 sec) 
Heartbeat CPU  0 instructions:   75000002 cycles:  109251197 heartbeat IPC: 0.44970 cumulative IPC: 0.37007 (Simulation time: 0 hr 1 min 18 sec) 
Heartbeat CPU  0 instructions:   76000000 cycles:  111133862 heartbeat IPC: 0.53116 cumulative IPC: 0.37321 (Simulation time: 0 hr 1 min 19 sec) 
Heartbeat CPU  0 instructions:   77000001 cycles:  113913314 heartbeat IPC: 0.35978 cumulative IPC: 0.37284 (Simulation time: 0 hr 1 min 20 sec) 
Heartbeat CPU  0 instructions:   78000001 cycles:  116528426 heartbeat IPC: 0.38239 cumulative IPC: 0.37308 (Simulation time: 0 hr 1 min 21 sec) 
Heartbeat CPU  0 instructions:   79000000 cycles:  119054585 heartbeat IPC: 0.39586 cumulative IPC: 0.37363 (Simulation time: 0 hr 1 min 22 sec) 
Heartbeat CPU  0 instructions:   80000000 cycles:  122019565 heartbeat IPC: 0.33727 cumulative IPC: 0.37263 (Simulation time: 0 hr 1 min 23 sec) 
Heartbeat CPU  0 instructions:   81000001 cycles:  124188767 heartbeat IPC: 0.46100 cumulative IPC: 0.37438 (Simulation time: 0 hr 1 min 25 sec) 
Heartbeat CPU  0 instructions:   82000003 cycles:  127060610 heartbeat IPC: 0.34821 cumulative IPC: 0.37371 (Simulation time: 0 hr 1 min 26 sec) 
Heartbeat CPU  0 instructions:   83000003 cycles:  129261462 heartbeat IPC: 0.45437 cumulative IPC: 0.37526 (Simulation time: 0 hr 1 min 27 sec) 
Heartbeat CPU  0 instructions:   84000000 cycles:  132059805 heartbeat IPC: 0.35735 cumulative IPC: 0.37483 (Simulation time: 0 hr 1 min 28 sec) 
Heartbeat CPU  0 instructions:   85000001 cycles:  134957941 heartbeat IPC: 0.34505 cumulative IPC: 0.37411 (Simulation time: 0 hr 1 min 29 sec) 
Heartbeat CPU  0 instructions:   86000001 cycles:  137392225 heartbeat IPC: 0.41080 cumulative IPC: 0.37484 (Simulation time: 0 hr 1 min 30 sec) 
Heartbeat CPU  0 instructions:   87000000 cycles:  139801094 heartbeat IPC: 0.41513 cumulative IPC: 0.37562 (Simulation time: 0 hr 1 min 32 sec) 
Heartbeat CPU  0 instructions:   88000000 cycles:  142117890 heartbeat IPC: 0.43163 cumulative IPC: 0.37664 (Simulation time: 0 hr 1 min 33 sec) 
Heartbeat CPU  0 instructions:   89000003 cycles:  144530556 heartbeat IPC: 0.41448 cumulative IPC: 0.37734 (Simulation time: 0 hr 1 min 34 sec) 
Heartbeat CPU  0 instructions:   90000000 cycles:  147561038 heartbeat IPC: 0.32998 cumulative IPC: 0.37626 (Simulation time: 0 hr 1 min 35 sec) 
Heartbeat CPU  0 instructions:   91000001 cycles:  150244663 heartbeat IPC: 0.37263 cumulative IPC: 0.37619 (Simulation time: 0 hr 1 min 36 sec) 
Heartbeat CPU  0 instructions:   92000000 cycles:  152669496 heartbeat IPC: 0.41240 cumulative IPC: 0.37682 (Simulation time: 0 hr 1 min 37 sec) 
Heartbeat CPU  0 instructions:   93000002 cycles:  155069552 heartbeat IPC: 0.41666 cumulative IPC: 0.37750 (Simulation time: 0 hr 1 min 39 sec) 
Heartbeat CPU  0 instructions:   94000002 cycles:  157559373 heartbeat IPC: 0.40164 cumulative IPC: 0.37793 (Simulation time: 0 hr 1 min 40 sec) 
Heartbeat CPU  0 instructions:   95000000 cycles:  159990198 heartbeat IPC: 0.41138 cumulative IPC: 0.37848 (Simulation time: 0 hr 1 min 41 sec) 
Heartbeat CPU  0 instructions:   96000000 cycles:  162702277 heartbeat IPC: 0.36872 cumulative IPC: 0.37831 (Simulation time: 0 hr 1 min 42 sec) 
Heartbeat CPU  0 instructions:   97000001 cycles:  165207793 heartbeat IPC: 0.39912 cumulative IPC: 0.37865 (Simulation time: 0 hr 1 min 43 sec) 
Heartbeat CPU  0 instructions:   98000003 cycles:  167220274 heartbeat IPC: 0.49690 cumulative IPC: 0.38021 (Simulation time: 0 hr 1 min 44 sec) 
Heartbeat CPU  0 instructions:   99000000 cycles:  169968887 heartbeat IPC: 0.36382 cumulative IPC: 0.37992 (Simulation time: 0 hr 1 min 45 sec) 
*** Reached end of trace for Core: 0 Repeating trace: /home/wzz/Pythia/traces/cassandra_phase0_core0.trace.xz
Heartbeat CPU  0 instructions:  100000000 cycles:  172650514 heartbeat IPC: 0.37291 cumulative IPC: 0.37980 (Simulation time: 0 hr 1 min 47 sec) 
Heartbeat CPU  0 instructions:  101000000 cycles:  176539468 heartbeat IPC: 0.25714 cumulative IPC: 0.37686 (Simulation time: 0 hr 1 min 48 sec) 
Heartbeat CPU  0 instructions:  102000002 cycles:  178833526 heartbeat IPC: 0.43591 cumulative IPC: 0.37768 (Simulation time: 0 hr 1 min 49 sec) 
Heartbeat CPU  0 instructions:  103000003 cycles:  182906837 heartbeat IPC: 0.24550 cumulative IPC: 0.37448 (Simulation time: 0 hr 1 min 50 sec) 
Heartbeat CPU  0 instructions:  104000000 cycles:  185396108 heartbeat IPC: 0.40172 cumulative IPC: 0.37488 (Simulation time: 0 hr 1 min 52 sec) 
Heartbeat CPU  0 instructions:  105000001 cycles:  188211033 heartbeat IPC: 0.35525 cumulative IPC: 0.37456 (Simulation time: 0 hr 1 min 53 sec) 
Heartbeat CPU  0 instructions:  106000000 cycles:  190753383 heartbeat IPC: 0.39334 cumulative IPC: 0.37483 (Simulation time: 0 hr 1 min 54 sec) 
Heartbeat CPU  0 instructions:  107000001 cycles:  193307741 heartbeat IPC: 0.39149 cumulative IPC: 0.37507 (Simulation time: 0 hr 1 min 55 sec) 
Heartbeat CPU  0 instructions:  108000000 cycles:  195381496 heartbeat IPC: 0.48222 cumulative IPC: 0.37630 (Simulation time: 0 hr 1 min 56 sec) 
Heartbeat CPU  0 instructions:  109000002 cycles:  197923764 heartbeat IPC: 0.39335 cumulative IPC: 0.37654 (Simulation time: 0 hr 1 min 57 sec) 
Heartbeat CPU  0 instructions:  110000000 cycles:  200894766 heartbeat IPC: 0.33659 cumulative IPC: 0.37590 (Simulation time: 0 hr 1 min 58 sec) 
Heartbeat CPU  0 instructions:  111000002 cycles:  203806339 heartbeat IPC: 0.34346 cumulative IPC: 0.37540 (Simulation time: 0 hr 2 min 0 sec) 
Heartbeat CPU  0 instructions:  112000000 cycles:  206015375 heartbeat IPC: 0.45269 cumulative IPC: 0.37629 (Simulation time: 0 hr 2 min 1 sec) 
Heartbeat CPU  0 instructions:  113000002 cycles:  208667097 heartbeat IPC: 0.37711 cumulative IPC: 0.37630 (Simulation time: 0 hr 2 min 2 sec) 
Heartbeat CPU  0 instructions:  114000003 cycles:  211482545 heartbeat IPC: 0.35518 cumulative IPC: 0.37600 (Simulation time: 0 hr 2 min 3 sec) 
Heartbeat CPU  0 instructions:  115000001 cycles:  214174234 heartbeat IPC: 0.37151 cumulative IPC: 0.37594 (Simulation time: 0 hr 2 min 4 sec) 
Heartbeat CPU  0 instructions:  116000000 cycles:  216837601 heartbeat IPC: 0.37546 cumulative IPC: 0.37593 (Simulation time: 0 hr 2 min 5 sec) 
Heartbeat CPU  0 instructions:  117000001 cycles:  219335344 heartbeat IPC: 0.40036 cumulative IPC: 0.37623 (Simulation time: 0 hr 2 min 7 sec) 
Heartbeat CPU  0 instructions:  118000003 cycles:  222000496 heartbeat IPC: 0.37521 cumulative IPC: 0.37622 (Simulation time: 0 hr 2 min 8 sec) 
Heartbeat CPU  0 instructions:  119000000 cycles:  224092954 heartbeat IPC: 0.47791 cumulative IPC: 0.37723 (Simulation time: 0 hr 2 min 9 sec) 
Heartbeat CPU  0 instructions:  120000000 cycles:  226665854 heartbeat IPC: 0.38867 cumulative IPC: 0.37737 (Simulation time: 0 hr 2 min 10 sec) 
Heartbeat CPU  0 instructions:  121000003 cycles:  229208068 heartbeat IPC: 0.39336 cumulative IPC: 0.37756 (Simulation time: 0 hr 2 min 11 sec) 
Heartbeat CPU  0 instructions:  122000000 cycles:  231776083 heartbeat IPC: 0.38940 cumulative IPC: 0.37770 (Simulation time: 0 hr 2 min 12 sec) 
Heartbeat CPU  0 instructions:  123000001 cycles:  234572543 heartbeat IPC: 0.35760 cumulative IPC: 0.37745 (Simulation time: 0 hr 2 min 13 sec) 
Heartbeat CPU  0 instructions:  124000000 cycles:  237573514 heartbeat IPC: 0.33323 cumulative IPC: 0.37685 (Simulation time: 0 hr 2 min 15 sec) 
Heartbeat CPU  0 instructions:  125000000 cycles:  240174365 heartbeat IPC: 0.38449 cumulative IPC: 0.37694 (Simulation time: 0 hr 2 min 16 sec) 
Heartbeat CPU  0 instructions:  126000001 cycles:  242793068 heartbeat IPC: 0.38187 cumulative IPC: 0.37700 (Simulation time: 0 hr 2 min 17 sec) 
Heartbeat CPU  0 instructions:  127000001 cycles:  245392464 heartbeat IPC: 0.38470 cumulative IPC: 0.37708 (Simulation time: 0 hr 2 min 18 sec) 
Heartbeat CPU  0 instructions:  128000000 cycles:  247518693 heartbeat IPC: 0.47032 cumulative IPC: 0.37793 (Simulation time: 0 hr 2 min 19 sec) 
Heartbeat CPU  0 instructions:  129000003 cycles:  250105386 heartbeat IPC: 0.38660 cumulative IPC: 0.37803 (Simulation time: 0 hr 2 min 20 sec) 
Heartbeat CPU  0 instructions:  130000001 cycles:  252718577 heartbeat IPC: 0.38267 cumulative IPC: 0.37808 (Simulation time: 0 hr 2 min 21 sec) 
Heartbeat CPU  0 instructions:  131000003 cycles:  255552681 heartbeat IPC: 0.35285 cumulative IPC: 0.37778 (Simulation time: 0 hr 2 min 23 sec) 
Heartbeat CPU  0 instructions:  132000000 cycles:  258220199 heartbeat IPC: 0.37488 cumulative IPC: 0.37775 (Simulation time: 0 hr 2 min 24 sec) 
Heartbeat CPU  0 instructions:  133000003 cycles:  260366417 heartbeat IPC: 0.46594 cumulative IPC: 0.37852 (Simulation time: 0 hr 2 min 25 sec) 
Heartbeat CPU  0 instructions:  134000000 cycles:  263625325 heartbeat IPC: 0.30685 cumulative IPC: 0.37758 (Simulation time: 0 hr 2 min 26 sec) 
Heartbeat CPU  0 instructions:  135000000 cycles:  266269305 heartbeat IPC: 0.37822 cumulative IPC: 0.37759 (Simulation time: 0 hr 2 min 27 sec) 
Heartbeat CPU  0 instructions:  136000000 cycles:  268103978 heartbeat IPC: 0.54506 cumulative IPC: 0.37880 (Simulation time: 0 hr 2 min 28 sec) 
Heartbeat CPU  0 instructions:  137000000 cycles:  270386058 heartbeat IPC: 0.43820 cumulative IPC: 0.37933 (Simulation time: 0 hr 2 min 30 sec) 
Heartbeat CPU  0 instructions:  138000002 cycles:  273202252 heartbeat IPC: 0.35509 cumulative IPC: 0.37907 (Simulation time: 0 hr 2 min 31 sec) 
Heartbeat CPU  0 instructions:  139000002 cycles:  275778672 heartbeat IPC: 0.38814 cumulative IPC: 0.37916 (Simulation time: 0 hr 2 min 32 sec) 
Heartbeat CPU  0 instructions:  140000000 cycles:  278344320 heartbeat IPC: 0.38976 cumulative IPC: 0.37926 (Simulation time: 0 hr 2 min 33 sec) 
Finished CPU 0 instructions: 100000000 cycles: 263670348 cumulative IPC: 0.37926 (Simulation time: 0 hr 2 min 33 sec) 

ChampSim completed all CPUs

[ROI Statistics]
Core_0_instructions 100000000
Core_0_cycles 263670348
Core_0_IPC 0.37926

Core_0_branch_prediction_accuracy 97.88628
Core_0_branch_MPKI 2.62029
Core_0_average_ROB_occupancy_at_mispredict 101.55801

Core_0_L1D_total_access 9738904
Core_0_L1D_total_hit 8824099
Core_0_L1D_total_miss 914805
Core_0_L1D_loads 6502973
Core_0_L1D_load_hit 5686809
Core_0_L1D_load_miss 816164
Core_0_L1D_RFOs 3235931
Core_0_L1D_RFO_hit 3137290
Core_0_L1D_RFO_miss 98641
Core_0_L1D_prefetches 0
Core_0_L1D_prefetch_hit 0
Core_0_L1D_prefetch_miss 0
Core_0_L1D_writebacks 0
Core_0_L1D_writeback_hit 0
Core_0_L1D_writeback_miss 0
Core_0_L1D_prefetch_requested 0
Core_0_L1D_prefetch_dropped 0
Core_0_L1D_prefetch_issued 0
Core_0_L1D_prefetch_filled 0
Core_0_L1D_prefetch_useful 0
Core_0_L1D_prefetch_useless 0
Core_0_L1D_prefetch_late 0
Core_0_L1D_average_miss_latency 140.01476

Core_0_L1D_rq_access 11608330
Core_0_L1D_rq_forward 0
Core_0_L1D_rq_merged 4947349
Core_0_L1D_rq_to_cache 6660871
Core_0_L1D_rq_full 0

Core_0_L1D_wq_access 3606607
Core_0_L1D_wq_forward 110
Core_0_L1D_wq_merged 73543
Core_0_L1D_wq_to_cache 3533064
Core_0_L1D_wq_full 13108

Core_0_L1D_pq_access 0
Core_0_L1D_pq_forward 0
Core_0_L1D_pq_merged 0
Core_0_L1D_pq_to_cache 0
Core_0_L1D_pq_full 0

Core_0_L1D_acc_epochs 115979
Core_0_L1D_acc_level_0 115979
Core_0_L1D_acc_level_1 0
Core_0_L1D_acc_level_2 0
Core_0_L1D_acc_level_3 0
Core_0_L1D_acc_level_4 0
Core_0_L1D_acc_level_5 0
Core_0_L1D_acc_level_6 0
Core_0_L1D_acc_level_7 0
Core_0_L1D_acc_level_8 0
Core_0_L1D_acc_level_9 0

Core_0_L1I_total_access 20103156
Core_0_L1I_total_hit 19867644
Core_0_L1I_total_miss 235512
Core_0_L1I_loads 20103156
Core_0_L1I_load_hit 19867644
Core_0_L1I_load_miss 235512
Core_0_L1I_RFOs 0
Core_0_L1I_RFO_hit 0
Core_0_L1I_RFO_miss 0
Core_0_L1I_prefetches 0
Core_0_L1I_prefetch_hit 0
Core_0_L1I_prefetch_miss 0
Core_0_L1I_writebacks 0
Core_0_L1I_writeback_hit 0
Core_0_L1I_writeback_miss 0
Core_0_L1I_prefetch_requested 0
Core_0_L1I_prefetch_dropped 0
Core_0_L1I_prefetch_issued 0
Core_0_L1I_prefetch_filled 0
Core_0_L1I_prefetch_useful 0
Core_0_L1I_prefetch_useless 0
Core_0_L1I_prefetch_late 0
Core_0_L1I_average_miss_latency 76.02921

Core_0_L1I_rq_access 100000079
Core_0_L1I_rq_forward 0
Core_0_L1I_rq_merged 79765427
Core_0_L1I_rq_to_cache 20234652
Core_0_L1I_rq_full 0

Core_0_L1I_wq_access 0
Core_0_L1I_wq_forward 0
Core_0_L1I_wq_merged 0
Core_0_L1I_wq_to_cache 0
Core_0_L1I_wq_full 0

Core_0_L1I_pq_access 0
Core_0_L1I_pq_forward 0
Core_0_L1I_pq_merged 0
Core_0_L1I_pq_to_cache 0
Core_0_L1I_pq_full 0

Core_0_L1I_acc_epochs 115979
Core_0_L1I_acc_level_0 115979
Core_0_L1I_acc_level_1 0
Core_0_L1I_acc_level_2 0
Core_0_L1I_acc_level_3 0
Core_0_L1I_acc_level_4 0
Core_0_L1I_acc_level_5 0
Core_0_L1I_acc_level_6 0
Core_0_L1I_acc_level_7 0
Core_0_L1I_acc_level_8 0
Core_0_L1I_acc_level_9 0

Core_0_L2C_total_access 3140892
Core_0_L2C_total_hit 1695618
Core_0_L2C_total_miss 1445274
Core_0_L2C_loads 1051676
Core_0_L2C_load_hit 507283
Core_0_L2C_load_miss 544393
Core_0_L2C_RFOs 98629
Core_0_L2C_RFO_hit 19927
Core_0_L2C_RFO_miss 78702
Core_0_L2C_prefetches 1736842
Core_0_L2C_prefetch_hit 918503
Core_0_L2C_prefetch_miss 818339
Core_0_L2C_writebacks 253745
Core_0_L2C_writeback_hit 249905
Core_0_L2C_writeback_miss 3840
Core_0_L2C_prefetch_requested 3551879
Core_0_L2C_prefetch_dropped 80
Core_0_L2C_prefetch_issued 3551799
Core_0_L2C_prefetch_filled 1143210
Core_0_L2C_prefetch_useful 548727
Core_0_L2C_prefetch_useless 593033
Core_0_L2C_prefetch_late 51302
Core_0_L2C_average_miss_latency 165.28452

Core_0_L2C_rq_access 1150317
Core_0_L2C_rq_forward 0
Core_0_L2C_rq_merged 0
Core_0_L2C_rq_to_cache 1150305
Core_0_L2C_rq_full 0

Core_0_L2C_wq_access 253745
Core_0_L2C_wq_forward 12
Core_0_L2C_wq_merged 0
Core_0_L2C_wq_to_cache 253745
Core_0_L2C_wq_full 0

Core_0_L2C_pq_access 3551799
Core_0_L2C_pq_forward 0
Core_0_L2C_pq_merged 552565
Core_0_L2C_pq_to_cache 2999234
Core_0_L2C_pq_full 0

Core_0_L2C_acc_epochs 115979
Core_0_L2C_acc_level_0 1232
Core_0_L2C_acc_level_1 5584
Core_0_L2C_acc_level_2 15828
Core_0_L2C_acc_level_3 28766
Core_0_L2C_acc_level_4 31445
Core_0_L2C_acc_level_5 14331
Core_0_L2C_acc_level_6 5000
Core_0_L2C_acc_level_7 2640
Core_0_L2C_acc_level_8 1882
Core_0_L2C_acc_level_9 9271

Core_0_LLC_total_access 1672850
Core_0_LLC_total_hit 706375
Core_0_LLC_total_miss 966475
Core_0_LLC_loads 494161
Core_0_LLC_load_hit 238389
Core_0_LLC_load_miss 255772
Core_0_LLC_RFOs 78615
Core_0_LLC_RFO_hit 30405
Core_0_LLC_RFO_miss 48210
Core_0_LLC_prefetches 868654
Core_0_LLC_prefetch_hit 312398
Core_0_LLC_prefetch_miss 556256
Core_0_LLC_writebacks 231420
Core_0_LLC_writeback_hit 125183
Core_0_LLC_writeback_miss 106237
Core_0_LLC_prefetch_requested 0
Core_0_LLC_prefetch_dropped 0
Core_0_LLC_prefetch_issued 0
Core_0_LLC_prefetch_filled 776001
Core_0_LLC_prefetch_useful 9910
Core_0_LLC_prefetch_useless 753801
Core_0_LLC_prefetch_late 0
Core_0_LLC_average_miss_latency 174.99030

Core_0_LLC_rq_access 572780
Core_0_LLC_rq_forward 0
Core_0_LLC_rq_merged 0
Core_0_LLC_rq_to_cache 572776
Core_0_LLC_rq_full 0

Core_0_LLC_wq_access 231420
Core_0_LLC_wq_forward 4
Core_0_LLC_wq_merged 0
Core_0_LLC_wq_to_cache 231420
Core_0_LLC_wq_full 0

Core_0_LLC_pq_access 1194512
Core_0_LLC_pq_forward 0
Core_0_LLC_pq_merged 0
Core_0_LLC_pq_to_cache 1194512
Core_0_LLC_pq_full 0

Core_0_LLC_acc_epochs 271821
Core_0_LLC_acc_level_0 263683
Core_0_LLC_acc_level_1 3336
Core_0_LLC_acc_level_2 2415
Core_0_LLC_acc_level_3 250
Core_0_LLC_acc_level_4 84
Core_0_LLC_acc_level_5 1635
Core_0_LLC_acc_level_6 74
Core_0_LLC_acc_level_7 70
Core_0_LLC_acc_level_8 24
Core_0_LLC_acc_level_9 250

Core_0_major_page_fault 0
Core_0_minor_page_fault 42336

scooby_st_lookup 1463119
scooby_st_hit 896692
scooby_st_evict 566363
scooby_st_insert 566427
scooby_st_streaming 0

scooby_predict_called 1463119
scooby_predict_out_of_bounds 24933
scooby_predict_action_1 1374462
scooby_predict_issue_action_1 1367374
scooby_predict_hit_action_1 7088
scooby_predict_out_of_bounds_action_1 21749
scooby_predict_action_3 1573
scooby_predict_issue_action_3 1531
scooby_predict_hit_action_3 42
scooby_predict_out_of_bounds_action_3 61
scooby_predict_action_4 9507
scooby_predict_issue_action_4 9197
scooby_predict_hit_action_4 310
scooby_predict_out_of_bounds_action_4 473
scooby_predict_action_5 1163
scooby_predict_issue_action_5 1129
scooby_predict_hit_action_5 34
scooby_predict_out_of_bounds_action_5 90
scooby_predict_action_10 1251
scooby_predict_issue_action_10 991
scooby_predict_hit_action_10 260
scooby_predict_out_of_bounds_action_10 164
scooby_predict_action_11 1313
scooby_predict_issue_action_11 957
scooby_predict_hit_action_11 356
scooby_predict_out_of_bounds_action_11 216
scooby_predict_action_12 932
scooby_predict_issue_action_12 895
scooby_predict_hit_action_12 37
scooby_predict_out_of_bounds_action_12 216
scooby_predict_action_22 637
scooby_predict_issue_action_22 635
scooby_predict_hit_action_22 2
scooby_predict_out_of_bounds_action_22 385
scooby_predict_action_23 611
scooby_predict_issue_action_23 604
scooby_predict_hit_action_23 7
scooby_predict_out_of_bounds_action_23 368
scooby_predict_action_30 594
scooby_predict_issue_action_30 518
scooby_predict_hit_action_30 76
scooby_predict_out_of_bounds_action_30 478
scooby_predict_action_32 475
scooby_predict_issue_action_32 474
scooby_predict_hit_action_32 1
scooby_predict_out_of_bounds_action_32 479
scooby_predict_action_-1 21451
scooby_predict_issue_action_-1 5516
scooby_predict_hit_action_-1 15935
scooby_predict_out_of_bounds_action_-1 106
scooby_predict_action_-3 1235
scooby_predict_issue_action_-3 1037
scooby_predict_hit_action_-3 198
scooby_predict_out_of_bounds_action_-3 51
scooby_predict_action_-6 1078
scooby_predict_issue_action_-6 1020
scooby_predict_hit_action_-6 58
scooby_predict_out_of_bounds_action_-6 97
scooby_predict_action_0 21904
scooby_predict_issue_action_0 0
scooby_predict_hit_action_0 0
scooby_predict_out_of_bounds_action_0 0
scooby_predict_multi_deg_called 572090
scooby_predict_predicted 3551879
scooby_predict_multi_deg 2160001
scooby_predict_multi_deg_2 562664
scooby_predict_multi_deg_3 467741
scooby_predict_multi_deg_4 460185
scooby_predict_multi_deg_5 338193
scooby_predict_multi_deg_6 331218
scooby_predict_multi_deg_7 0
scooby_predict_multi_deg_8 0
scooby_predict_multi_deg_9 0
scooby_predict_multi_deg_10 0
scooby_predict_multi_deg_11 0
scooby_predict_multi_deg_12 0
scooby_predict_multi_deg_13 0
scooby_predict_multi_deg_14 0
scooby_predict_multi_deg_15 0
scooby_predict_multi_deg_16 0

scooby_selected_deg_1 819788
scooby_selected_deg_2 88133
scooby_selected_deg_3 0
scooby_selected_deg_4 119096
scooby_selected_deg_5 0
scooby_selected_deg_6 364861
scooby_selected_deg_7 0
scooby_selected_deg_8 0
scooby_selected_deg_9 0
scooby_selected_deg_10 0
scooby_selected_deg_11 0
scooby_selected_deg_12 0
scooby_selected_deg_13 0
scooby_selected_deg_14 0
scooby_selected_deg_15 0
scooby_selected_deg_16 0

scooby_state_1008c78|46|0 2200,0,4,0,2,2,2,2,1,0,1,0,2,2,455,2673,
scooby_state_1008c78|30|0 2106,3,3,4,4,0,4,3,3,1,1,1,4,2,422,2561,
scooby_state_1008c78|27|0 2049,3,3,1,2,1,0,1,1,1,1,0,3,0,412,2478,
scooby_state_1008c78|29|0 2046,4,3,3,3,1,2,0,0,2,2,3,3,1,389,2462,
scooby_state_1008c78|44|0 1967,5,2,2,3,2,3,2,0,0,1,2,2,2,378,2371,
scooby_state_1008c78|59|0 1949,1,4,0,3,4,1,1,2,3,3,3,3,2,382,2361,
scooby_state_1008c78|8|0 1940,3,4,2,2,2,3,6,3,0,1,0,1,2,366,2335,
scooby_state_1008c78|1|0 1869,3,2,0,4,1,0,2,2,2,2,3,3,2,364,2259,
scooby_state_1008c78|7|0 1809,6,2,2,2,4,4,6,1,3,3,3,2,1,325,2173,
scooby_state_1008c78|34|0 1795,2,1,2,1,0,3,1,3,0,1,5,4,2,353,2173,
scooby_state_1008c78|2|0 1752,1,4,2,1,1,0,3,1,3,1,1,0,1,336,2107,
scooby_state_1008c78|0|0 1637,2,1,2,1,2,2,1,5,2,1,4,3,4,330,1997,
scooby_state_1008c78|12|0 1628,4,1,0,1,2,1,2,3,1,1,2,1,5,310,1962,
scooby_state_1008c78|49|0 1616,1,2,0,1,0,2,1,2,1,0,2,2,5,312,1947,
scooby_state_1008c78|16|0 1614,1,2,3,1,1,3,3,2,3,1,3,3,2,300,1942,
scooby_state_1008c78|13|0 1532,2,2,1,2,3,2,3,2,4,0,4,2,1,292,1852,
scooby_state_1008c78|31|0 1460,4,2,1,1,0,1,0,2,1,1,2,2,1,245,1723,
scooby_state_1008c78|5|0 1407,3,1,3,2,0,2,0,4,0,4,6,0,0,245,1677,
scooby_state_1008c78|24|0 1375,3,2,0,0,2,1,1,2,0,1,1,3,2,266,1659,
scooby_state_1008c78|39|0 1284,1,1,0,1,1,3,1,1,1,1,2,1,0,274,1572,
scooby_state_1008c78|41|0 1289,4,1,2,0,2,1,0,0,1,0,1,2,0,255,1558,
scooby_state_1008c78|9|0 1270,2,2,2,0,0,1,0,1,0,1,1,0,0,262,1542,
scooby_state_1008c78|21|0 1245,2,1,2,1,1,0,1,0,2,2,1,1,3,267,1529,
scooby_state_1008c78|37|0 1252,0,2,0,1,1,1,1,1,0,0,4,0,3,246,1512,
scooby_state_1008c78|42|0 1249,4,2,2,1,0,3,2,2,3,1,2,3,2,232,1508,
scooby_state_1008c78|19|0 1216,0,1,0,1,2,2,1,2,1,0,1,1,3,251,1482,
scooby_state_1008c78|32|0 1323,0,0,4,1,1,1,0,3,1,1,4,4,1,132,1476,
scooby_state_1008c78|6|0 1193,2,1,2,3,1,4,4,1,0,1,0,1,3,247,1463,
scooby_state_1008c78|36|0 1211,0,2,2,2,0,1,0,0,0,1,1,1,0,236,1457,
scooby_state_1008c78|25|0 1185,1,4,1,0,1,2,2,1,3,1,0,0,2,232,1435,
scooby_state_1008c78|40|0 1190,1,1,0,1,1,0,0,0,0,0,1,2,3,224,1424,
scooby_state_1008c78|63|0 1190,0,0,4,1,1,0,3,1,3,1,1,3,0,212,1420,
scooby_state_1008c78|47|0 1143,2,1,1,2,0,4,1,1,0,2,0,0,2,232,1391,
scooby_state_12f2674|26|1 1343,0,0,0,0,0,0,0,0,0,0,0,1,0,0,1344,
scooby_state_12f2674|37|1 1344,0,0,0,0,0,0,0,0,0,0,0,0,0,0,1344,
scooby_state_12f2674|3|1 1342,0,0,1,0,0,0,0,0,0,0,0,0,0,1,1344,
scooby_state_12f2674|54|1 1342,0,0,0,0,0,0,1,0,0,0,0,0,0,1,1344,
scooby_state_12f2674|29|1 1344,0,0,0,0,0,0,0,0,0,0,0,0,0,0,1344,
scooby_state_12f2674|25|1 1343,0,1,0,0,0,0,0,0,0,0,0,0,0,0,1344,
scooby_state_12f2674|57|1 1342,2,0,0,0,0,0,0,0,0,0,0,0,0,0,1344,
scooby_state_12f2674|17|1 1343,0,0,0,0,1,0,0,0,0,0,0,0,0,0,1344,
scooby_state_12f2674|23|1 1342,0,0,0,0,0,0,1,1,0,0,0,0,0,0,1344,
scooby_state_12f2674|32|1 1342,2,0,0,0,0,0,0,0,0,0,0,0,0,0,1344,
scooby_state_12f2674|4|1 1344,0,0,0,0,0,0,0,0,0,0,0,0,0,0,1344,
scooby_state_12f2674|47|1 1338,0,0,0,1,0,1,0,0,1,1,1,1,0,0,1344,
scooby_state_12f2674|45|1 1342,0,0,0,0,0,0,1,0,0,0,0,0,0,1,1344,
scooby_state_12f2674|59|1 1342,0,0,0,1,0,0,1,0,0,0,0,0,0,0,1344,
scooby_state_12f2674|1|1 1343,0,0,0,0,0,0,0,1,0,0,0,0,0,0,1344,
scooby_state_12f2674|52|1 1342,0,0,0,1,0,0,0,0,0,0,0,1,0,0,1344,
scooby_state_12f2674|55|1 1341,1,0,0,0,0,0,0,0,0,0,0,1,1,0,1344,
scooby_state_12f2674|39|1 1344,0,0,0,0,0,0,0,0,0,0,0,0,0,0,1344,
scooby_state_12f2674|10|1 1342,0,0,0,0,0,0,0,0,0,1,0,0,1,0,1344,
scooby_state_12f2674|40|1 1342,0,0,1,0,0,0,0,0,0,0,1,0,0,0,1344,
scooby_state_12f2674|62|1 1341,2,0,0,0,0,0,0,0,0,0,0,0,0,1,1344,
scooby_state_12f2674|38|1 1341,0,0,0,1,0,0,0,0,0,0,0,1,1,0,1344,
scooby_state_12f2674|42|1 1342,0,0,0,0,0,0,0,1,0,1,0,0,0,0,1344,
scooby_state_12f2674|14|1 1343,0,0,0,0,0,0,0,0,1,0,0,0,0,0,1344,
scooby_state_12f2674|24|1 1341,1,1,0,1,0,0,0,0,0,0,0,0,0,0,1344,
scooby_state_12f2674|48|1 1341,0,1,0,0,0,0,0,1,1,0,0,0,0,0,1344,
scooby_state_12f2674|50|1 1340,0,0,0,0,0,0,1,0,0,1,1,0,1,0,1344,
scooby_state_12f2674|22|1 1344,0,0,0,0,0,0,0,0,0,0,0,0,0,0,1344,
scooby_state_12f2674|18|1 1343,0,0,0,0,0,0,0,0,1,0,0,0,0,0,1344,
scooby_state_12f2674|11|1 1342,0,0,0,0,0,0,0,0,2,0,0,0,0,0,1344,
scooby_state_12f2674|7|1 1342,0,0,0,0,0,0,0,0,0,0,0,0,2,0,1344,
scooby_state_12f2674|61|1 1341,0,0,0,0,0,0,0,1,0,0,0,1,0,1,1344,
scooby_state_12f2674|63|1 1341,0,0,1,0,0,0,0,0,0,0,2,0,0,0,1344,
scooby_state_12f2674|36|1 1340,0,0,0,0,0,1,0,0,2,0,1,0,0,0,1344,
scooby_state_12f2674|30|1 1342,0,1,0,0,0,0,0,0,1,0,0,0,0,0,1344,
scooby_state_12f2674|60|1 1343,1,0,0,0,0,0,0,0,0,0,0,0,0,0,1344,
scooby_state_12f2674|8|1 1342,0,2,0,0,0,0,0,0,0,0,0,0,0,0,1344,
scooby_state_12f2674|12|1 1342,0,0,0,0,0,0,0,1,0,0,0,0,0,1,1344,
scooby_state_12f2674|58|1 1344,0,0,0,0,0,0,0,0,0,0,0,0,0,0,1344,
scooby_state_12f2674|13|1 1343,0,0,0,0,0,0,0,1,0,0,0,0,0,0,1344,
scooby_state_12f2674|44|1 1343,0,0,0,0,0,0,0,0,0,0,0,0,0,1,1344,
scooby_state_12f2674|53|1 1338,1,0,0,1,0,0,0,1,1,0,0,2,0,0,1344,
scooby_state_12f2674|56|1 1344,0,0,0,0,0,0,0,0,0,0,0,0,0,0,1344,
scooby_state_12f2674|51|1 1343,0,0,1,0,0,0,0,0,0,0,0,0,0,0,1344,
scooby_state_12f2674|41|1 1342,0,0,0,0,1,0,0,1,0,0,0,0,0,0,1344,
scooby_state_12f2674|15|1 1341,1,0,0,0,1,0,0,0,0,1,0,0,0,0,1344,
scooby_state_12f2674|5|1 1340,0,0,0,0,1,0,1,0,0,1,1,0,0,0,1344,
scooby_state_12f2674|9|1 1343,0,0,0,0,0,0,1,0,0,0,0,0,0,0,1344,
scooby_state_12f2674|31|1 1341,0,0,0,0,1,0,0,0,0,0,1,1,0,0,1344,
scooby_state_12f2674|19|1 1340,1,0,1,0,0,1,0,0,0,0,0,0,1,0,1344,
scooby_state_12f2674|28|1 1343,0,0,0,0,0,1,0,0,0,0,0,0,0,0,1344,
scooby_state_12f2674|49|1 1342,0,0,0,1,0,0,1,0,0,0,0,0,0,0,1344,
scooby_state_12f2674|2|1 1340,1,1,1,0,0,1,0,0,0,0,0,0,0,0,1344,
scooby_state_12f2674|35|1 1343,0,0,0,0,0,0,0,0,0,0,0,1,0,0,1344,
scooby_state_12f2674|43|1 1344,0,0,0,0,0,0,0,0,0,0,0,0,0,0,1344,
scooby_state_12f2674|46|1 1343,0,0,0,0,0,0,0,0,0,1,0,0,0,0,1344,
scooby_state_12f2674|16|1 1341,0,0,0,0,0,0,0,0,0,1,1,1,0,0,1344,
scooby_state_12f2674|20|1 1342,0,0,0,0,0,0,1,0,0,0,0,0,1,0,1344,
scooby_state_12f2674|6|1 1342,1,0,0,0,0,0,0,0,0,0,1,0,0,0,1344,
scooby_state_12f2674|34|1 1340,0,1,0,1,0,0,0,0,1,0,0,0,0,0,1343,
scooby_state_12f2674|33|1 1343,0,0,0,0,0,0,0,0,0,0,0,0,0,0,1343,
scooby_state_12f2674|21|1 1340,0,0,0,1,0,0,0,0,0,0,0,2,0,0,1343,
scooby_state_12f2674|27|1 1337,0,0,1,1,0,0,1,0,0,0,1,1,0,1,1343,
scooby_state_1008c78|55|0 1106,0,1,1,2,0,1,1,2,1,2,4,2,3,214,1340,
scooby_state_1008c78|54|0 1109,1,4,1,0,1,2,2,1,0,0,0,2,0,199,1322,
scooby_state_1008c78|18|0 1100,1,3,1,1,2,1,2,2,1,1,0,0,2,199,1316,
scooby_state_1008c78|3|0 1091,2,1,1,1,0,2,2,0,1,0,1,0,0,209,1311,
scooby_state_1008c78|60|0 1087,5,4,0,1,1,3,3,0,1,1,0,3,1,197,1307,
scooby_state_12f2674|0|0 1301,0,0,0,0,0,0,0,0,1,0,0,0,0,0,1302,
scooby_state_1008c78|14|0 1047,1,4,2,2,1,3,1,1,3,0,2,3,0,195,1265,
scooby_state_1008c78|48|0 1044,6,2,4,1,1,1,2,0,1,2,0,0,1,200,1265,
scooby_state_1008c78|15|0 1046,2,4,4,1,0,3,1,0,1,1,1,2,1,179,1246,
scooby_state_1008c78|57|0 1039,3,0,1,1,0,0,0,3,1,2,0,0,1,194,1245,
scooby_state_ffffffff789f1a20|21|0 1122,1,14,4,2,2,0,2,2,4,1,2,3,1,76,1236,
scooby_state_1008c78|62|0 1003,0,2,2,2,1,1,1,0,1,0,1,2,0,212,1228,
scooby_state_ffffffff789f1a20|41|0 1109,2,18,1,1,1,8,1,0,3,2,3,3,1,73,1226,
scooby_state_1008c78|11|0 1004,2,1,0,1,0,1,0,0,0,1,0,0,0,208,1218,
scooby_state_ffffffff789f1a08|0|0 1198,1,0,0,0,0,1,0,0,0,0,0,1,0,1,1202,
scooby_state_ffffffff789f1a08|62|0 1197,0,1,0,0,0,0,0,1,0,1,0,0,0,0,1200,
scooby_state_1008c78|52|0 980,2,2,3,3,3,1,1,0,0,0,1,0,0,197,1193,
scooby_state_ffffffff789f1a08|6|0 1183,0,2,0,1,0,0,0,0,2,0,0,0,0,0,1188,
scooby_state_ffffffff789f1a08|15|0 1181,0,0,0,0,0,0,0,0,1,0,0,1,1,0,1184,
scooby_state_ffffffff789f1a08|41|0 1180,0,0,1,0,0,0,0,1,0,0,0,0,0,1,1183,
scooby_state_ffffffff789f1a08|55|0 1169,0,0,1,0,1,2,0,0,0,0,0,0,0,0,1173,
scooby_state_ffffffff789f1a20|8|0 1047,1,14,4,2,1,4,3,2,1,0,1,1,4,79,1164,
scooby_state_ffffffff789f1a08|58|0 1143,0,0,0,0,0,0,1,0,0,0,0,1,0,0,1145,
scooby_state_1008c78|4|0 945,1,2,3,2,0,2,2,2,2,1,2,3,2,176,1145,
scooby_state_1008c78|43|0 940,0,1,0,1,0,0,0,1,2,0,2,1,2,185,1135,
scooby_state_1008c78|10|0 933,3,0,2,2,0,3,1,0,3,0,0,1,3,182,1133,
scooby_state_ffffffff789f1a20|6|0 1010,2,17,3,0,2,2,0,2,1,1,3,8,0,81,1132,
scooby_state_ffffffff789f1a08|24|0 1124,1,0,0,0,0,0,0,0,0,0,0,0,0,0,1125,
scooby_state_ffffffff789f1a20|55|0 1011,0,18,0,1,5,3,1,2,0,5,0,1,0,78,1125,
scooby_state_ffffffff789f1a20|15|0 996,2,20,0,1,0,0,1,4,0,0,2,1,2,87,1116,
scooby_state_ffffffff789f1a20|56|0 1003,0,17,2,0,0,0,1,0,3,0,3,0,3,82,1114,
scooby_state_ffffffff789f1a08|46|0 1111,0,0,0,0,0,1,0,0,0,0,0,0,0,0,1112,
scooby_state_ffffffff789f1a20|45|0 1009,1,17,2,3,4,0,2,2,3,0,2,2,2,60,1109,
scooby_state_1008c78|23|0 891,2,1,1,1,1,0,1,0,1,0,0,1,1,195,1096,
scooby_state_ffffffff789f1a08|35|0 1089,0,0,0,1,0,1,0,0,0,1,0,1,0,0,1093,
scooby_state_ffffffff789f1a08|63|0 1089,1,0,0,0,0,0,0,0,0,0,0,1,0,0,1091,
scooby_state_ffffffff789f1a08|8|0 1087,0,0,0,0,0,0,0,0,0,0,0,0,0,1,1088,
scooby_state_ffffffff789f1a20|29|0 989,1,15,2,4,1,0,0,1,3,2,0,2,1,67,1088,
scooby_state_ffffffff789f1a20|50|0 979,3,15,2,3,0,0,3,0,2,1,3,0,1,72,1084,
scooby_state_ffffffff789f1a08|4|0 1080,0,0,0,0,0,0,0,0,0,0,0,0,0,0,1080,
scooby_state_ffffffff789f1a08|54|0 1079,1,0,0,0,0,0,0,0,0,0,0,0,0,0,1080,
scooby_state_ffffffff7899c874|19|0 1079,0,0,0,0,0,0,0,0,0,0,0,0,1,0,1080,
scooby_state_ffffffff789f1a08|13|0 1076,0,0,1,1,0,0,0,0,0,0,0,0,0,0,1078,
scooby_state_ffffffff789f1a08|7|0 1073,0,0,0,0,0,0,1,0,0,0,0,0,0,0,1074,
scooby_state_ffffffff789f1a08|33|0 1066,0,0,1,0,2,0,1,1,0,0,0,0,0,1,1072,
scooby_state_ffffffff789f1a20|0|0 960,3,21,3,1,3,1,0,1,0,1,3,0,0,75,1072,
scooby_state_ffffffff789f1a20|3|0 950,2,19,1,2,2,3,0,2,2,1,3,2,2,77,1068,
scooby_state_ffffffff789f1a08|53|0 1067,0,0,0,0,0,0,0,0,0,0,0,0,0,0,1067,
scooby_state_ffffffff7899c874|33|0 1065,0,0,0,0,0,0,0,0,0,0,0,1,0,0,1066,
scooby_state_ffffffff789f1a08|9|0 1065,0,1,0,0,0,0,0,0,0,0,0,0,0,0,1066,
scooby_state_1008c78|45|0 896,0,2,2,0,3,1,1,1,1,0,0,1,1,156,1065,
scooby_state_ffffffff789f1a20|31|0 955,0,19,2,1,0,3,0,1,0,2,0,2,3,76,1064,
scooby_state_ffffffff789f1a08|30|0 1062,0,0,0,0,0,0,0,1,0,0,0,0,0,0,1063,
scooby_state_ffffffff789f1a20|54|0 947,1,15,4,1,3,0,4,1,1,2,0,0,2,77,1058,
scooby_state_ffffffff789f1a08|47|0 1054,0,0,0,0,0,1,0,0,0,0,0,0,0,0,1055,
scooby_state_ffffffff789f1a20|5|0 960,0,8,1,1,0,2,0,0,4,0,4,5,0,69,1054,
scooby_state_1008c78|53|0 864,1,1,2,0,1,1,0,0,0,0,0,0,1,182,1053,
scooby_state_ffffffff789f1a08|50|0 1049,0,0,0,1,0,0,0,0,0,0,0,0,0,2,1052,
scooby_state_ffffffff789f1a20|62|0 950,1,16,2,2,0,3,1,0,2,1,0,1,2,71,1052,
scooby_state_ffffffff7899c874|17|0 1048,0,0,0,0,0,1,0,0,0,0,0,0,1,0,1050,
scooby_state_ffffffff789f1a08|32|0 1048,0,0,0,0,0,0,0,0,0,0,0,0,0,0,1048,
scooby_state_ffffffff789f1a20|33|0 931,1,19,9,3,2,1,1,1,1,1,2,0,0,76,1048,
scooby_state_ffffffff789f1c7c|29|0 1030,1,5,0,1,1,0,0,0,1,1,2,1,0,3,1046,
scooby_state_ffffffff789f1c7c|12|0 1015,1,5,1,1,3,0,0,2,0,2,3,3,2,5,1043,
scooby_state_ffffffff789f1c7c|18|0 1017,3,1,2,2,1,1,0,0,2,0,3,2,2,3,1039,
scooby_state_ffffffff789f1a20|27|0 924,2,21,1,1,0,2,1,2,4,0,2,0,0,73,1033,
scooby_state_ffffffff789f1a20|11|0 930,2,14,2,3,1,0,2,0,1,1,3,0,2,70,1031,
scooby_state_ffffffff789f1a00|0|0 1023,1,0,1,1,2,0,0,0,0,0,1,1,0,0,1030,
scooby_state_ffffffff789f1c7c|11|0 1005,3,0,0,0,1,1,0,0,1,1,5,0,4,3,1024,
scooby_state_ffffffff789f1c7c|7|0 1010,0,0,0,0,1,1,0,1,1,1,2,1,1,4,1023,
scooby_state_ffffffff789f1a08|16|0 1021,0,0,0,0,0,0,1,1,0,0,0,0,0,0,1023,
scooby_state_ffffffff789f1a08|2|0 1019,0,0,0,0,1,0,0,0,0,0,0,0,0,0,1020,
scooby_state_ffffffff789f1a08|21|0 1014,0,1,0,0,0,0,0,0,0,0,1,0,2,0,1018,
scooby_state_1008c78|22|0 839,0,0,0,0,1,0,1,1,1,3,1,0,1,170,1018,
scooby_state_ffffffff789f1a20|39|0 922,2,10,2,2,1,3,1,5,1,2,2,3,3,58,1017,
scooby_state_ffffffff789f1c7c|49|0 991,2,2,2,2,0,1,1,1,4,2,2,2,1,2,1015,
scooby_state_ffffffff789f1c7c|51|0 996,0,2,0,0,6,1,1,1,1,0,2,2,1,2,1015,
scooby_state_ffffffff789f1c7c|9|0 996,3,0,1,0,0,3,1,2,1,0,3,1,2,2,1015,
scooby_state_ffffffff789f1c7c|27|0 985,1,1,2,2,1,1,1,0,4,2,7,2,0,5,1014,
scooby_state_ffffffff789f1a20|58|0 918,0,9,2,2,3,1,2,1,0,0,4,2,1,69,1014,
scooby_state_ffffffff789f1a08|14|0 1008,0,0,1,0,0,0,0,0,0,0,0,2,0,2,1013,
scooby_state_ffffffff789f1a08|17|0 1009,0,1,0,1,0,0,0,0,0,0,0,0,0,1,1012,
scooby_state_ffffffff789f1c7c|39|0 997,0,1,1,2,0,1,0,4,1,1,1,1,0,1,1011,
scooby_state_ffffffff789f1c7c|45|0 990,2,1,1,2,1,2,1,0,1,1,1,2,2,3,1010,
scooby_state_1008c78|50|0 843,2,3,0,1,2,0,2,1,1,3,1,1,0,149,1009,
scooby_state_ffffffff789f1c7c|8|0 996,1,1,1,0,0,1,0,0,0,0,2,0,1,6,1009,
scooby_state_ffffffff789f1c7c|21|0 980,1,4,1,2,1,0,2,1,3,1,3,0,3,5,1007,
scooby_state_ffffffff7899c874|21|0 1004,0,0,1,0,0,0,0,0,0,0,0,0,0,0,1005,
scooby_state_ffffffff789f1a20|52|0 909,2,14,2,2,1,1,0,0,0,0,1,3,1,69,1005,
scooby_state_ffffffff789f1a20|37|0 908,1,12,1,3,2,2,1,3,1,1,3,1,0,66,1005,
scooby_state_ffffffff789f1c7c|40|0 990,1,1,2,0,1,0,2,2,1,0,3,0,0,1,1004,
scooby_state_1008b6c|39|0 898,5,37,8,3,6,4,5,3,5,2,3,4,8,13,1004,
scooby_state_ffffffff789f1c7c|57|0 976,3,1,0,2,0,2,1,1,2,3,4,2,0,6,1003,
scooby_state_ffffffff789f1c7c|33|0 986,1,3,3,0,1,0,1,0,0,0,2,1,0,4,1002,
scooby_state_1008c78|17|0 823,2,1,1,0,1,1,2,1,1,0,0,1,0,168,1002,
scooby_state_ffffffff789f1c7c|63|0 986,0,0,1,1,2,2,3,0,0,2,2,1,1,1,1002,
scooby_state_ffffffff7899c874|35|0 1001,0,0,0,0,0,0,0,0,0,0,0,0,0,0,1001,
scooby_state_ffffffff789f1a08|18|0 995,0,1,0,0,0,0,0,0,1,1,0,0,0,0,998,
scooby_state_ffffffff789f1c7c|14|0 982,2,1,0,0,1,0,1,2,0,1,1,0,3,4,998,
scooby_state_ffffffff789f1a98|25|1 997,0,0,0,0,0,1,0,0,0,0,0,0,0,0,998,
scooby_state_ffffffff789f1a20|10|0 894,1,11,1,0,5,0,2,0,2,0,1,1,1,78,997,
scooby_state_ffffffff789f1c7c|16|0 978,2,5,3,2,1,2,0,1,0,1,2,0,0,0,997,
scooby_state_ffffffff789f1c7c|38|0 979,1,2,2,0,0,2,0,0,1,1,2,2,0,4,996,
scooby_state_ffffffff789f1c7c|59|0 981,0,1,2,2,1,1,1,2,0,1,0,1,1,2,996,
scooby_state_ffffffff789f1a08|23|0 994,0,0,1,0,0,0,0,0,0,0,0,0,1,0,996,
scooby_state_ffffffff7899c874|9|0 995,0,0,0,0,0,0,0,0,0,0,0,0,0,0,995,
scooby_state_ffffffff789f1a20|13|0 892,3,16,1,3,0,3,5,4,1,0,0,3,1,63,995,
scooby_state_ffffffff789f1a98|42|1 993,0,0,1,0,0,0,0,0,0,0,0,0,0,0,994,
scooby_state_ffffffff789f1a08|37|0 990,0,0,1,0,0,1,0,0,0,1,0,0,0,0,993,
scooby_state_ffffffff789f1a98|18|1 991,0,0,1,0,0,0,0,0,0,0,0,0,0,0,992,
scooby_state_ffffffff789f1a98|23|1 989,0,1,0,0,0,0,1,0,0,0,1,0,0,0,992,
scooby_state_ffffffff789f1a08|56|0 990,1,0,0,0,0,0,1,0,0,0,0,0,0,0,992,
scooby_state_ffffffff789f1a98|41|1 988,0,1,1,1,1,0,0,0,0,0,0,0,0,0,992,
scooby_state_ffffffff789f1a98|4|1 989,1,0,0,0,0,0,1,0,0,0,0,0,0,0,991,
scooby_state_ffffffff789f1c7c|0|0 972,1,1,4,1,1,1,2,0,1,0,3,2,0,2,991,
scooby_state_ffffffff789f1a98|13|1 989,0,0,0,0,1,0,0,1,0,0,0,0,0,0,991,
scooby_state_ffffffff789f1c7c|4|0 976,0,3,1,0,2,0,0,0,1,2,2,1,1,2,991,
scooby_state_ffffffff789f1a98|36|1 988,0,0,0,0,0,0,0,0,0,0,2,0,0,0,990,
scooby_state_ffffffff789f1a98|61|1 990,0,0,0,0,0,0,0,0,0,0,0,0,0,0,990,
scooby_state_ffffffff789f1a98|16|1 988,0,0,0,0,0,0,0,0,0,2,0,0,0,0,990,
scooby_state_ffffffff789f1c7c|6|0 974,1,4,1,3,0,0,0,1,2,0,0,1,1,2,990,
scooby_state_ffffffff789f1a98|20|1 988,0,0,0,1,0,0,0,1,0,0,0,0,0,0,990,
scooby_state_ffffffff789f1a98|6|1 987,0,0,0,0,0,0,0,0,0,2,0,0,0,0,989,
scooby_state_ffffffff789f1c7c|19|0 971,1,3,1,2,2,3,1,0,0,0,3,1,0,1,989,
scooby_state_ffffffff789f1a98|43|1 986,0,0,0,0,0,0,0,0,0,1,0,0,1,1,989,
scooby_state_ffffffff789f1a98|33|1 986,0,0,1,0,0,0,0,0,0,0,1,0,0,1,989,
scooby_state_ffffffff789f1a98|32|1 989,0,0,0,0,0,0,0,0,0,0,0,0,0,0,989,
scooby_state_ffffffff789f1c7c|2|0 974,5,2,0,1,1,1,0,1,0,1,1,1,1,0,989,
scooby_state_ffffffff789f1c7c|23|0 963,3,5,0,3,2,0,1,0,0,0,2,2,5,3,989,
scooby_state_ffffffff789f1c7c|1|0 972,1,1,3,1,2,2,1,0,1,0,3,0,1,0,988,
scooby_state_ffffffff789f1c7c|15|0 970,0,1,1,1,0,1,1,4,0,1,4,0,2,2,988,
scooby_state_ffffffff789f1c7c|61|0 965,0,3,2,1,2,1,1,3,2,0,3,2,1,2,988,
scooby_state_ffffffff789f1c7c|44|0 959,3,6,1,2,1,0,0,0,5,1,3,1,2,3,987,
scooby_state_ffffffff789f1a98|45|1 986,1,0,0,0,0,0,0,0,0,0,0,0,0,0,987,
scooby_state_ffffffff789f1a98|62|1 985,0,0,0,0,0,0,0,0,0,1,0,0,0,0,986,
scooby_state_ffffffff789f1a98|52|1 983,1,0,0,0,0,0,0,0,1,0,0,1,0,0,986,
scooby_state_ffffffff789f1a08|38|0 985,0,0,0,0,0,0,0,1,0,0,0,0,0,0,986,
scooby_state_ffffffff789f1a98|15|1 986,0,0,0,0,0,0,0,0,0,0,0,0,0,0,986,
scooby_state_ffffffff789f1a98|22|1 986,0,0,0,0,0,0,0,0,0,0,0,0,0,0,986,
scooby_state_ffffffff789f1a98|14|1 986,0,0,0,0,0,0,0,0,0,0,0,0,0,0,986,
scooby_state_ffffffff789f1a98|2|1 979,1,0,1,2,0,0,0,0,1,0,0,0,1,0,985,
scooby_state_ffffffff789f1a98|54|1 985,0,0,0,0,0,0,0,0,0,0,0,0,0,0,985,
scooby_state_ffffffff789f1a98|11|1 983,0,0,0,0,0,0,0,0,0,0,0,2,0,0,985,
scooby_state_ffffffff789f1a98|34|1 983,0,0,0,0,0,0,0,0,0,0,2,0,0,0,985,
scooby_state_ffffffff789f1a98|7|1 983,0,0,0,0,0,0,0,0,0,0,1,0,0,0,984,
scooby_state_ffffffff7899c874|31|0 983,0,0,0,1,0,0,0,0,0,0,0,0,0,0,984,
scooby_state_ffffffff789f1a98|5|1 982,0,0,0,1,0,0,1,0,0,0,0,0,0,0,984,
scooby_state_ffffffff789f1c7c|54|0 969,1,1,2,0,1,1,0,3,0,1,3,1,0,1,984,
scooby_state_ffffffff789f1a98|35|1 983,0,0,0,0,0,0,1,0,0,0,0,0,0,0,984,
scooby_state_ffffffff789f1c7c|62|0 963,2,5,1,0,0,0,1,0,1,0,3,1,1,4,982,
scooby_state_ffffffff789f1a98|59|1 982,0,0,0,0,0,0,0,0,0,0,0,0,0,0,982,
scooby_state_ffffffff789f1a98|24|1 981,0,1,0,0,0,0,0,0,0,0,0,0,0,0,982,
scooby_state_ffffffff789f1a98|63|1 981,0,0,0,0,0,0,1,0,0,0,0,0,0,0,982,
scooby_state_ffffffff789f1a98|44|1 982,0,0,0,0,0,0,0,0,0,0,0,0,0,0,982,
scooby_state_ffffffff789f1a08|60|0 981,1,0,0,0,0,0,0,0,0,0,0,0,0,0,982,
scooby_state_ffffffff789f1a08|11|0 981,0,0,0,1,0,0,0,0,0,0,0,0,0,0,982,
scooby_state_ffffffff789f1a98|26|1 978,0,0,0,0,0,0,1,0,1,0,0,1,0,0,981,
scooby_state_ffffffff789f1a98|51|1 981,0,0,0,0,0,0,0,0,0,0,0,0,0,0,981,
scooby_state_ffffffff789f1a20|60|0 879,1,18,1,0,2,3,1,0,1,1,0,1,1,72,981,
scooby_state_ffffffff789f1a08|22|0 977,1,0,0,0,1,1,0,0,0,0,0,0,0,0,980,
scooby_state_ffffffff789f1a20|46|0 884,1,8,0,2,1,4,1,2,3,1,1,2,0,69,979,
scooby_state_ffffffff789f1a98|60|1 977,0,0,0,0,0,0,1,0,1,0,0,0,0,0,979,
scooby_state_ffffffff789f1a98|0|0 975,0,0,1,1,0,0,1,0,0,0,0,0,0,0,978,
scooby_state_ffffffff7899c874|11|0 978,0,0,0,0,0,0,0,0,0,0,0,0,0,0,978,
scooby_state_ffffffff789f1c7c|46|0 954,0,3,0,1,0,0,0,5,0,1,1,1,6,6,978,
scooby_state_ffffffff789f1a20|30|0 886,2,12,2,2,0,2,0,3,1,1,2,2,2,60,977,
scooby_state_ffffffff789f1a98|50|1 976,0,0,0,0,0,0,0,0,0,0,1,0,0,0,977,
scooby_state_ffffffff789f1a98|40|1 974,1,0,0,0,0,0,0,1,0,0,0,0,0,0,976,
scooby_state_ffffffff789f1a98|17|1 975,0,0,0,0,0,0,0,0,0,0,0,0,1,0,976,
scooby_state_ffffffff789f1c7c|10|0 961,0,1,1,1,2,0,2,0,0,1,0,0,1,6,976,
scooby_state_ffffffff789f1c7c|31|0 956,1,2,2,2,3,1,0,1,0,0,1,1,1,5,976,
scooby_state_ffffffff789f1c7c|24|0 952,0,2,1,2,2,4,2,0,1,0,2,0,3,4,975,
scooby_state_ffffffff7899c874|27|0 971,0,1,0,0,0,1,0,1,0,0,0,0,0,1,975,
scooby_state_ffffffff789f1a98|27|1 969,0,0,0,0,1,1,0,2,0,0,0,0,0,1,974,
scooby_state_ffffffff789f1c7c|37|0 960,0,2,1,2,2,0,0,0,0,1,1,1,2,2,974,
scooby_state_ffffffff789f1a98|9|1 971,0,0,0,0,0,0,0,0,1,2,0,0,0,0,974,
scooby_state_ffffffff789f1c7c|60|0 951,3,1,3,1,1,0,1,2,1,2,4,0,1,2,973,
scooby_state_ffffffff7899c874|39|0 971,0,0,0,0,0,1,0,0,0,0,0,0,0,1,973,
scooby_state_ffffffff7899c874|23|0 972,0,0,0,0,0,0,0,0,0,0,0,0,0,0,972,
scooby_state_ffffffff789f1a98|53|1 969,0,0,0,0,0,0,0,0,0,0,0,1,0,1,971,
scooby_state_ffffffff789f1c7c|55|0 955,1,1,0,2,3,1,0,0,0,0,2,2,0,4,971,
scooby_state_ffffffff789f1a98|8|1 966,0,1,0,0,1,1,0,0,0,0,0,0,1,0,970,
scooby_state_ffffffff7899c874|25|0 967,1,0,0,0,0,0,1,0,1,0,0,0,0,0,970,
scooby_state_ffffffff789f1a98|31|1 968,0,0,0,0,0,1,0,0,0,0,0,0,0,1,970,
scooby_state_ffffffff789f1c7c|28|0 954,0,0,2,2,1,1,0,0,0,3,1,2,1,2,969,
scooby_state_ffffffff789f1c7c|34|0 947,3,4,2,1,2,1,0,0,1,1,1,1,3,2,969,
scooby_state_ffffffff789f1a20|25|0 876,0,15,0,0,3,1,1,1,2,1,3,2,2,62,969,
scooby_state_ffffffff789f1a98|57|1 966,0,0,0,1,0,0,1,0,0,1,0,0,0,0,969,
scooby_state_ffffffff789f1c7c|56|0 945,1,2,0,1,2,3,1,1,5,0,3,2,1,1,968,
scooby_state_ffffffff789f1a20|14|0 874,2,10,2,1,1,0,0,2,1,3,1,0,5,66,968,
scooby_state_ffffffff789f1a98|49|1 965,0,1,0,0,0,0,1,0,0,0,0,0,0,0,967,
scooby_state_ffffffff789f1c7c|58|0 939,0,3,0,1,2,2,4,1,4,3,3,1,1,2,966,
scooby_state_ffffffff789f1a98|38|1 964,0,0,0,0,0,0,0,1,0,0,1,0,0,0,966,
scooby_state_ffffffff789f1a98|39|1 964,0,0,0,1,0,0,0,0,0,0,0,0,0,0,965,
scooby_state_ffffffff789f1a20|40|0 871,2,10,0,0,3,1,1,2,1,1,0,1,2,70,965,
scooby_state_ffffffff789f1c7c|32|0 944,0,1,3,0,1,1,0,2,0,3,5,1,0,3,964,
scooby_state_ffffffff789f1a98|46|1 964,0,0,0,0,0,0,0,0,0,0,0,0,0,0,964,
scooby_state_ffffffff789f1a20|23|0 869,0,12,1,0,3,2,2,1,0,0,8,2,2,61,963,
scooby_state_ffffffff789f1a98|47|1 963,0,0,0,0,0,0,0,0,0,0,0,0,0,0,963,
scooby_state_ffffffff7899c874|55|0 961,0,0,0,1,1,0,0,0,0,0,0,0,0,0,963,
scooby_state_ffffffff789f1a98|55|1 962,0,0,0,0,0,0,1,0,0,0,0,0,0,0,963,
scooby_state_ffffffff7899c874|54|0 961,0,0,0,0,0,0,1,0,0,0,0,0,0,0,962,
scooby_state_ffffffff789f1c7c|22|0 951,1,0,2,2,1,0,0,0,0,0,1,2,1,1,962,
scooby_state_ffffffff789f1a98|48|1 961,0,0,0,0,0,0,0,0,0,0,0,0,0,0,961,
scooby_state_ffffffff789f1a08|49|0 960,0,1,0,0,0,0,0,0,0,0,0,0,0,0,961,
scooby_state_ffffffff789f1a98|29|1 958,0,0,1,0,0,0,0,0,1,0,0,0,0,0,960,
scooby_state_ffffffff789f1c7c|42|0 940,2,3,0,0,0,0,2,1,0,0,4,0,1,7,960,
scooby_state_ffffffff789f1a98|37|1 960,0,0,0,0,0,0,0,0,0,0,0,0,0,0,960,
scooby_state_ffffffff789f1c7c|50|0 936,1,4,0,1,1,0,1,0,2,0,5,1,2,5,959,
scooby_state_ffffffff789f1a98|30|1 958,0,0,0,0,0,0,0,0,0,0,0,0,0,0,958,
scooby_state_ffffffff789f1a98|56|1 956,0,0,0,0,0,0,0,0,1,0,0,0,0,0,957,
scooby_state_ffffffff789f1a98|28|1 956,0,0,0,0,0,0,0,0,0,0,0,0,1,0,957,
scooby_state_ffffffff789f1a20|19|0 858,2,16,3,2,2,1,2,1,0,1,2,2,2,63,957,
scooby_state_ffffffff789f1a98|3|1 953,1,0,0,0,1,0,0,0,0,0,1,1,0,0,957,
scooby_state_ffffffff789f1a98|1|1 952,1,0,0,0,1,1,0,0,0,1,0,0,0,0,956,
scooby_state_ffffffff789f1a90|0|0 953,0,2,0,0,0,0,0,0,0,1,0,0,0,0,956,
scooby_state_ffffffff789f1a98|12|1 956,0,0,0,0,0,0,0,0,0,0,0,0,0,0,956,
scooby_state_ffffffff789f1c7c|48|0 931,4,1,0,2,3,1,0,2,0,0,6,1,3,1,955,
scooby_state_ffffffff789f1c7c|47|0 940,0,2,1,2,1,1,0,1,1,1,2,2,0,1,955,
scooby_state_ffffffff789f1a98|21|1 951,0,1,1,0,0,0,0,0,0,0,1,0,0,0,954,
scooby_state_ffffffff789f1a20|9|0 858,3,16,0,1,0,3,1,0,1,0,1,2,4,64,954,
scooby_state_ffffffff789f1a98|19|1 951,0,0,0,0,1,0,1,0,0,0,0,0,0,0,953,
scooby_state_ffffffff7899c874|60|0 950,0,0,0,0,0,0,0,0,1,1,0,0,0,0,952,
scooby_state_ffffffff789f1a98|58|1 952,0,0,0,0,0,0,0,0,0,0,0,0,0,0,952,
scooby_state_ffffffff7899c874|1|0 952,0,0,0,0,0,0,0,0,0,0,0,0,0,0,952,
scooby_state_ffffffff789f1c7c|30|0 936,1,0,1,0,1,0,0,2,1,2,3,2,2,1,952,
scooby_state_ffffffff789f1c7c|3|0 935,2,2,0,1,1,0,0,1,1,0,2,2,0,5,952,
scooby_state_ffffffff7899c874|47|0 952,0,0,0,0,0,0,0,0,0,0,0,0,0,0,952,
scooby_state_ffffffff789f1c7c|41|0 931,1,1,1,0,1,1,0,2,2,1,4,1,1,3,950,
scooby_state_ffffffff7899c874|57|0 947,0,0,0,0,0,1,1,0,0,0,0,1,0,0,950,
scooby_state_ffffffff7899c874|49|0 947,0,0,0,1,0,1,0,0,0,0,0,0,0,0,949,
scooby_state_ffffffff789f1c7c|35|0 928,2,4,0,1,0,2,2,0,2,1,1,1,2,3,949,
scooby_state_ffffffff789f1c7c|53|0 927,2,0,3,1,1,1,1,3,2,3,0,1,2,1,948,
scooby_state_ffffffff789f1c7c|17|0 923,2,2,0,2,1,1,2,2,0,2,4,1,2,3,947,
scooby_state_ffffffff789f1c7c|25|0 929,1,3,1,0,1,0,1,0,0,1,5,0,1,4,947,
scooby_state_ffffffff7899c874|15|0 945,0,0,0,0,0,0,0,0,0,0,0,0,1,1,947,
scooby_state_ffffffff789f1c7c|36|0 923,1,1,3,2,2,0,0,2,0,5,3,1,1,3,947,
scooby_state_ffffffff7899c874|51|0 944,0,0,0,0,0,0,0,1,0,0,0,0,0,0,945,
scooby_state_ffffffff789f1a20|43|0 855,2,9,0,1,4,1,0,0,1,0,2,4,1,65,945,
scooby_state_ffffffff789f1c7c|52|0 924,1,1,0,1,0,0,2,1,1,2,6,3,0,1,943,
scooby_state_ffffffff789f1a08|12|0 938,0,1,0,0,1,1,0,0,0,0,0,0,0,2,943,
scooby_state_ffffffff789f1a20|36|0 845,2,17,2,2,2,0,1,0,1,1,0,0,1,69,943,
scooby_state_ffffffff789f1a08|3|0 940,1,0,0,0,0,0,0,0,1,0,0,0,0,0,942,
scooby_state_ffffffff789f1a98|10|1 942,0,0,0,0,0,0,0,0,0,0,0,0,0,0,942,
scooby_state_ffffffff789f1c7c|13|0 921,1,1,1,0,1,0,0,0,0,3,4,2,0,7,941,
scooby_state_ffffffff789f1a20|12|0 846,5,14,1,3,2,1,3,4,0,0,1,0,2,59,941,
scooby_state_ffffffff789f1c7c|43|0 917,0,3,1,0,1,4,1,2,2,2,2,4,1,1,941,
scooby_state_ffffffff789f1a20|34|0 835,2,18,1,2,1,2,5,2,2,1,0,3,3,57,934,
scooby_state_ffffffff7899c874|13|0 932,0,0,0,0,1,0,0,0,0,0,0,0,0,0,933,
scooby_state_ffffffff789f1a20|24|0 842,1,16,1,5,3,0,0,1,0,1,0,0,3,60,933,
scooby_state_ffffffff789f1a20|63|0 843,0,11,1,4,1,1,2,1,2,1,4,2,0,59,932,
scooby_state_ffffffff789f1a08|29|0 931,0,0,0,0,0,0,0,0,0,0,0,0,0,0,931,
scooby_state_ffffffff789f1a08|27|0 929,0,0,0,0,0,0,0,0,0,0,1,0,0,0,930,
scooby_state_ffffffff7899c874|59|0 930,0,0,0,0,0,0,0,0,0,0,0,0,0,0,930,
scooby_state_ffffffff789f1c7c|5|0 907,3,5,0,2,4,0,0,0,0,2,0,3,2,2,930,
scooby_state_ffffffff7899c874|63|0 928,0,0,0,0,0,0,0,1,0,0,0,1,0,0,930,
scooby_state_ffffffff789f1a20|1|0 835,2,14,3,2,1,0,0,1,3,0,0,1,2,65,929,
scooby_state_ffffffff789f1a20|49|0 838,2,17,3,1,2,1,1,0,1,4,1,2,3,52,928,
scooby_state_ffffffff7899c874|43|0 924,0,1,0,0,0,0,0,0,0,0,1,0,0,0,926,
scooby_state_ffffffff789f1c7c|26|0 905,2,1,1,3,1,0,1,0,0,2,3,1,1,3,924,
scooby_state_ffffffff789f1a08|5|0 920,0,0,0,1,0,0,0,0,0,0,0,2,0,0,923,
scooby_state_ffffffff789f1a20|48|0 837,1,11,0,1,1,1,1,0,1,0,0,2,1,65,922,
scooby_state_ffffffff7899c874|3|0 922,0,0,0,0,0,0,0,0,0,0,0,0,0,0,922,
scooby_state_ffffffff789f1a20|4|0 833,0,14,1,1,2,0,1,3,1,3,0,2,3,56,920,
scooby_state_1008c78|26|0 763,1,2,2,2,1,2,1,0,0,2,0,2,1,140,919,
scooby_state_ffffffff789f1c7c|20|0 904,1,0,2,1,1,0,0,0,0,0,0,1,1,7,918,
scooby_state_ffffffff7899c874|8|0 918,0,0,0,0,0,0,0,0,0,0,0,0,0,0,918,
scooby_state_ffffffff789f1a90|1|1 914,1,0,1,0,0,0,1,0,0,0,0,0,0,0,917,
scooby_state_ffffffff7899c874|2|0 913,0,0,0,0,0,0,0,1,0,0,0,0,0,1,915,
scooby_state_ffffffff789f1a08|57|0 913,0,0,0,0,0,0,0,0,0,0,0,1,0,0,914,
scooby_state_ffffffff7899c874|37|0 911,0,0,1,0,0,0,0,0,0,0,0,0,0,0,912,
scooby_state_ffffffff7899c874|12|0 910,1,0,0,0,0,0,0,0,0,0,0,0,0,0,911,
scooby_state_1008c78|38|0 738,1,0,0,1,2,0,0,1,0,1,1,0,2,164,911,
scooby_state_ffffffff789f1a20|61|0 832,0,16,1,1,0,1,1,0,2,0,2,0,2,53,911,
scooby_state_ffffffff7899c874|4|0 910,1,0,0,0,0,0,0,0,0,0,0,0,0,0,911,
scooby_state_ffffffff789f1a20|7|0 808,0,14,3,1,2,0,0,1,0,0,1,5,1,72,908,
scooby_state_ffffffff789f1a20|42|0 823,0,13,0,1,3,0,1,0,0,0,1,1,0,65,908,
scooby_state_ffffffff7899c874|45|0 907,1,0,0,0,0,0,0,0,0,0,0,0,0,0,908,
scooby_state_ffffffff7899c874|10|0 901,1,1,0,0,0,0,0,1,1,1,0,0,0,0,906,
scooby_state_ffffffff7899c874|52|0 905,0,0,0,0,0,0,1,0,0,0,0,0,0,0,906,
scooby_state_ffffffff7899c874|62|0 905,0,0,0,1,0,0,0,0,0,0,0,0,0,0,906,
scooby_state_ffffffff789f1a08|44|0 904,1,0,0,0,0,0,0,0,0,0,0,0,0,0,905,
scooby_state_ffffffff789f1a08|25|0 904,0,0,0,1,0,0,0,0,0,0,0,0,0,0,905,
scooby_state_ffffffff7899c874|61|0 902,0,0,0,0,0,0,0,0,0,1,1,0,0,0,904,
scooby_state_ffffffff7899c874|5|0 904,0,0,0,0,0,0,0,0,0,0,0,0,0,0,904,
scooby_state_ffffffff7899c874|50|0 900,0,0,0,0,0,0,0,0,0,0,0,0,0,1,901,
scooby_state_ffffffff789f1a20|38|0 812,0,11,1,3,0,1,1,1,0,0,4,1,0,59,894,
scooby_state_ffffffff789f1a08|39|0 893,0,0,0,0,0,1,0,0,0,0,0,0,0,0,894,
scooby_state_ffffffff7899c874|41|0 886,1,0,0,0,0,1,0,1,0,0,0,0,0,0,889,
scooby_state_ffffffff7899c874|44|0 886,1,0,0,0,0,1,0,0,0,0,0,0,0,0,888,
scooby_state_ffffffff789f1a90|2|1 887,0,0,0,0,0,0,0,0,0,0,1,0,0,0,888,
scooby_state_ffffffff7899c874|7|0 884,0,0,0,0,1,0,0,1,1,0,0,0,0,0,887,
scooby_state_ffffffff7899c874|48|0 885,0,0,0,0,0,0,0,0,0,0,0,0,0,0,885,
scooby_state_ffffffff7899c874|56|0 881,0,0,0,1,0,1,0,0,0,0,0,0,0,1,884,
scooby_state_ffffffff789f1a90|21|1 878,0,0,0,0,0,0,0,0,0,0,0,0,0,0,878,
scooby_state_ffffffff789f1a90|59|1 874,0,1,0,0,0,0,0,1,0,1,0,0,1,0,878,
scooby_state_ffffffff789f1a90|51|1 873,0,0,0,1,0,1,1,0,1,0,0,0,0,0,877,
scooby_state_ffffffff7899c874|53|0 873,0,0,0,0,0,0,0,0,0,0,0,0,0,0,873,
scooby_state_ffffffff789f1a08|31|0 869,1,0,0,0,0,0,0,0,0,0,0,0,2,0,872,
scooby_state_1008c78|20|0 724,0,1,1,1,0,0,0,1,0,0,2,0,0,141,871,
scooby_state_ffffffff789f1a90|10|1 870,0,0,0,0,1,0,0,0,0,0,0,0,0,0,871,
scooby_state_ffffffff789f1a90|41|1 869,0,0,0,0,0,1,0,0,0,0,0,0,0,0,870,
scooby_state_ffffffff789f1a90|43|1 868,0,0,0,0,0,0,1,0,0,0,0,1,0,0,870,
scooby_state_ffffffff789f1a20|16|0 789,1,13,2,1,3,1,1,1,0,0,1,2,2,53,870,
scooby_state_ffffffff789f1a90|53|1 865,0,0,0,1,1,1,0,0,0,0,0,0,0,1,869,
scooby_state_ffffffff789f1a90|44|1 869,0,0,0,0,0,0,0,0,0,0,0,0,0,0,869,
scooby_state_ffffffff789f1a00|40|1 839,0,1,1,2,1,2,2,0,2,1,2,1,2,12,868,
scooby_state_ffffffff789f1a90|60|1 866,1,0,1,0,0,0,0,0,0,0,0,0,0,0,868,
scooby_state_ffffffff789f1a90|61|1 868,0,0,0,0,0,0,0,0,0,0,0,0,0,0,868,
scooby_state_ffffffff789f1a90|15|1 864,0,0,0,0,0,1,0,0,1,1,0,0,1,0,868,
scooby_state_ffffffff789f1a90|12|1 866,0,0,0,0,0,0,0,0,0,0,1,0,0,0,867,
scooby_state_ffffffff789f1a08|10|0 866,0,1,0,0,0,0,0,0,0,0,0,0,0,0,867,
scooby_state_ffffffff789f1a90|23|1 866,0,0,0,0,0,0,0,0,0,0,0,0,0,0,866,
scooby_state_ffffffff789f1a08|45|0 864,0,0,0,0,0,0,0,0,0,0,0,1,0,0,865,
scooby_state_ffffffff789f1a90|13|1 863,0,0,0,0,0,0,0,1,0,0,0,0,0,0,864,
scooby_state_ffffffff789f1a90|16|1 864,0,0,0,0,0,0,0,0,0,0,0,0,0,0,864,
scooby_state_ffffffff7899c874|42|0 864,0,0,0,0,0,0,0,0,0,0,0,0,0,0,864,
scooby_state_ffffffff789f1a08|59|0 862,0,0,0,0,1,0,1,0,0,0,0,0,0,0,864,
scooby_state_ffffffff789f1a20|35|0 776,0,14,1,2,2,1,0,0,1,0,1,0,2,63,863,
scooby_state_1008c78|35|0 734,1,2,1,0,2,0,0,1,0,1,2,0,1,118,863,
scooby_state_ffffffff789f1a08|20|0 861,0,0,1,0,0,0,0,0,0,0,0,0,0,0,862,
scooby_state_ffffffff789f1a90|24|1 861,0,0,0,0,0,0,0,0,0,0,0,1,0,0,862,
scooby_state_ffffffff789f1a90|26|1 861,0,0,0,0,0,0,0,0,0,0,0,1,0,0,862,
scooby_state_ffffffff789f1a90|50|1 856,0,0,1,0,0,2,0,0,0,0,0,1,1,0,861,
scooby_state_ffffffff7899c874|46|0 859,0,0,0,0,0,0,1,1,0,0,0,0,0,0,861,
scooby_state_ffffffff789f1a20|47|0 770,1,10,3,2,0,2,2,2,0,1,0,1,3,64,861,
scooby_state_ffffffff789f1a90|7|1 857,1,0,0,0,0,0,1,0,1,0,0,0,0,0,860,
scooby_state_ffffffff7899c874|58|0 859,0,0,0,0,0,0,0,0,1,0,0,0,0,0,860,
scooby_state_ffffffff789f1a90|25|1 858,0,0,0,0,0,1,0,0,0,0,0,0,0,0,859,
scooby_state_ffffffff789f1a08|40|0 856,1,0,0,0,0,1,0,0,0,0,0,0,1,0,859,
scooby_state_ffffffff789f1a90|14|1 857,0,0,0,0,0,1,0,0,0,0,0,0,0,0,858,
scooby_state_ffffffff789f1a90|34|1 856,0,0,0,1,0,1,0,0,0,0,0,0,0,0,858,
scooby_state_ffffffff789f1a90|42|1 854,0,0,0,0,0,1,0,0,1,0,0,0,1,0,857,
scooby_state_ffffffff789f1a90|5|1 854,0,0,0,0,0,0,1,0,1,0,0,0,1,0,857,
scooby_state_ffffffff7899c874|40|0 855,0,0,0,0,0,1,0,0,0,0,1,0,0,0,857,
scooby_state_ffffffff789f1a90|62|1 855,0,0,0,0,0,0,0,0,1,0,1,0,0,0,857,
scooby_state_ffffffff789f1a90|6|1 853,0,0,0,0,0,0,0,0,1,0,0,1,0,1,856,
scooby_state_ffffffff789f1a90|22|1 856,0,0,0,0,0,0,0,0,0,0,0,0,0,0,856,
scooby_state_ffffffff789f1a90|19|1 854,0,0,0,1,0,0,0,0,0,0,0,0,0,0,855,
scooby_state_ffffffff789f1a90|35|1 852,0,0,0,0,1,0,0,1,0,0,1,0,0,0,855,
scooby_state_ffffffff7899c874|18|0 850,1,0,0,0,1,0,0,1,0,0,0,0,0,1,854,
scooby_state_ffffffff789f1a90|3|1 854,0,0,0,0,0,0,0,0,0,0,0,0,0,0,854,
scooby_state_ffffffff789f1a90|8|1 854,0,0,0,0,0,0,0,0,0,0,0,0,0,0,854,
scooby_state_ffffffff789f1a90|40|1 850,0,0,0,0,0,0,0,0,0,0,1,0,0,0,851,
scooby_state_ffffffff789f1a90|39|1 851,0,0,0,0,0,0,0,0,0,0,0,0,0,0,851,
scooby_state_ffffffff7899c874|0|0 850,0,0,0,0,0,0,0,0,0,0,1,0,0,0,851,
scooby_state_ffffffff789f1a20|2|0 769,2,14,1,0,2,2,1,0,1,0,0,0,1,57,850,
scooby_state_ffffffff789f1a90|32|1 849,0,0,0,0,0,0,0,0,0,0,0,0,0,1,850,
scooby_state_ffffffff7899c874|6|0 848,0,0,0,0,0,0,0,0,0,0,0,0,0,2,850,
scooby_state_ffffffff789f1a90|4|1 846,0,1,0,0,1,0,0,0,0,0,1,1,0,0,850,
scooby_state_1008c78|51|0 715,1,0,0,0,1,3,2,0,0,0,0,1,0,126,849,
scooby_state_ffffffff789f1a90|28|1 844,0,1,0,1,0,0,0,1,0,0,0,2,0,0,849,
scooby_state_ffffffff789f1a08|43|0 844,0,1,0,0,0,1,0,0,0,0,0,1,0,0,847,
scooby_state_ffffffff789f1a90|31|1 845,0,1,0,1,0,0,0,0,0,0,0,0,0,0,847,
scooby_state_ffffffff789f1a90|58|1 845,0,0,1,0,0,0,0,1,0,0,0,0,0,0,847,
scooby_state_ffffffff789f1a90|48|1 846,0,0,0,1,0,0,0,0,0,0,0,0,0,0,847,
scooby_state_ffffffff789f1a20|20|0 764,3,16,0,1,0,1,0,3,0,1,2,2,3,51,847,
scooby_state_ffffffff789f1a90|46|1 846,0,0,0,0,0,0,0,0,0,0,0,0,0,0,846,
scooby_state_ffffffff789f1a90|37|1 841,0,0,0,0,0,1,0,1,0,0,0,0,0,1,844,
scooby_state_ffffffff789f1a90|18|1 842,0,0,0,0,0,0,0,0,0,2,0,0,0,0,844,
scooby_state_ffffffff789f1a90|17|1 842,0,0,0,0,0,0,0,0,0,0,1,0,0,1,844,
scooby_state_ffffffff789f1a90|38|1 843,0,0,0,0,0,0,0,0,0,0,0,0,0,0,843,
scooby_state_ffffffff789f1a90|57|1 843,0,0,0,0,0,0,0,0,0,0,0,0,0,0,843,
scooby_state_ffffffff789f1a90|63|1 843,0,0,0,0,0,0,0,0,0,0,0,0,0,0,843,
scooby_state_ffffffff789f1a20|57|0 746,2,16,1,2,2,1,0,1,1,3,0,2,5,59,841,
scooby_state_ffffffff789f1a08|61|0 837,0,0,0,0,0,1,0,0,0,1,1,0,0,0,840,
scooby_state_ffffffff789f1a90|27|1 840,0,0,0,0,0,0,0,0,0,0,0,0,0,0,840,
scooby_state_ffffffff7899c874|22|0 839,0,0,1,0,0,0,0,0,0,0,0,0,0,0,840,
scooby_state_ffffffff789f1a90|9|1 839,0,0,0,0,0,0,0,0,0,1,0,0,0,0,840,
scooby_state_ffffffff789f1a08|26|0 839,0,0,0,0,0,0,0,0,0,0,0,0,0,0,839,
scooby_state_ffffffff789f1a90|36|1 837,0,0,1,0,0,0,0,0,0,0,0,0,1,0,839,
scooby_state_ffffffff7899c874|38|0 838,0,0,1,0,0,0,0,0,0,0,0,0,0,0,839,
scooby_state_ffffffff789f1a90|49|1 836,0,0,0,0,0,0,0,0,0,0,2,0,0,0,838,
scooby_state_ffffffff789f1a90|56|1 837,0,0,0,1,0,0,0,0,0,0,0,0,0,0,838,
scooby_state_ffffffff7899c874|26|0 837,0,0,0,0,0,0,0,0,0,0,0,0,1,0,838,
scooby_state_ffffffff789f1a90|52|1 838,0,0,0,0,0,0,0,0,0,0,0,0,0,0,838,
scooby_state_ffffffff789f1a20|51|0 757,0,11,2,3,0,2,2,2,1,2,3,2,0,51,838,
scooby_state_ffffffff789f1a08|19|0 838,0,0,0,0,0,0,0,0,0,0,0,0,0,0,838,
scooby_state_ffffffff789f1a90|45|1 838,0,0,0,0,0,0,0,0,0,0,0,0,0,0,838,
scooby_state_ffffffff789f1a90|29|1 837,0,0,0,0,0,0,0,0,0,0,0,0,0,1,838,
scooby_state_ffffffff789f1a00|20|1 812,1,1,2,1,2,0,2,2,4,2,0,1,1,6,837,
scooby_state_ffffffff789f1a90|33|1 836,0,0,0,1,0,0,0,0,0,0,0,0,0,0,837,
scooby_state_ffffffff789f1a20|17|0 747,3,13,1,0,3,0,0,1,2,2,4,4,2,55,837,
scooby_state_ffffffff789f1a08|51|0 836,0,0,0,0,0,0,0,0,0,0,0,0,0,0,836,
scooby_state_1008c78|61|0 683,1,3,0,3,2,1,0,1,0,2,0,2,0,137,835,
scooby_state_ffffffff789f1a90|11|1 829,0,0,0,1,0,0,1,1,0,0,0,0,0,1,833,
scooby_state_ffffffff789f1a90|55|1 830,1,0,0,0,0,1,0,0,0,0,0,0,0,0,832,
scooby_state_1008c78|28|0 692,1,0,0,1,0,0,0,1,1,2,1,1,0,132,832,
scooby_state_ffffffff7899c874|24|0 832,0,0,0,0,0,0,0,0,0,0,0,0,0,0,832,
scooby_state_ffffffff7899c874|36|0 828,0,0,0,0,0,0,0,1,0,0,0,0,0,0,829,
scooby_state_ffffffff789f1a90|30|1 828,0,0,0,0,0,0,0,0,0,0,0,0,0,0,828,
scooby_state_ffffffff789f1a90|20|1 823,0,0,0,0,0,0,0,0,0,0,0,0,0,1,824,
scooby_state_ffffffff789f1a90|54|1 820,0,0,0,0,0,0,0,0,0,1,0,0,0,0,821,
scooby_state_ffffffff789f1cf0|31|0 799,3,0,0,1,3,3,2,3,0,0,2,2,0,1,819,
scooby_state_ffffffff789f1cf0|26|0 802,2,2,0,1,0,2,2,0,1,0,2,2,1,1,818,
scooby_state_ffffffff789f1a00|34|1 791,2,3,3,0,1,1,0,0,2,1,0,2,3,8,817,
scooby_state_ffffffff7899c874|29|0 815,0,1,0,0,0,0,0,0,0,0,0,0,0,0,816,
scooby_state_ffffffff7899c874|28|0 812,1,0,0,1,0,0,0,0,0,0,0,0,0,0,814,
scooby_state_ffffffff789f1a90|47|1 808,0,0,1,0,0,0,0,0,1,0,0,0,0,1,811,
scooby_state_ffffffff789f1a20|26|0 726,1,12,2,1,0,4,0,0,0,1,0,3,3,54,807,
scooby_state_ffffffff789f1a20|32|0 736,2,8,0,1,1,0,2,1,1,1,1,1,3,49,807,
scooby_state_ffffffff789f1a00|10|1 773,2,1,2,2,2,2,1,3,1,1,1,1,3,9,804,
scooby_state_ffffffff789f1cf0|2|0 782,1,1,1,4,1,0,0,2,2,1,2,1,0,6,804,
scooby_state_ffffffff789f1a00|18|1 770,3,2,3,0,0,3,2,2,0,1,4,1,2,10,803,
scooby_state_ffffffff7899c874|14|0 802,0,0,0,0,0,0,0,0,0,0,0,0,0,0,802,
scooby_state_ffffffff789f1a20|44|0 715,2,11,0,1,2,2,3,0,1,2,3,0,1,55,798,
scooby_state_ffffffff7899c874|16|0 798,0,0,0,0,0,0,0,0,0,0,0,0,0,0,798,
scooby_state_ffffffff789f1cf0|16|0 784,3,0,1,1,0,0,1,0,0,0,1,2,0,4,797,
scooby_state_ffffffff789f1a08|42|0 791,0,0,0,2,0,0,2,1,0,0,0,0,0,0,796,
scooby_state_ffffffff789f1a08|28|0 794,0,0,0,0,0,0,0,0,0,0,0,0,1,0,795,
scooby_state_ffffffff789f1a00|36|1 767,5,1,2,2,1,0,2,2,0,2,0,1,2,6,793,
scooby_state_ffffffff789f1a00|12|1 763,2,2,2,1,2,3,0,0,1,1,2,0,3,9,791,
scooby_state_ffffffff789f1cf0|34|0 765,3,0,3,1,1,0,4,1,1,2,2,2,0,5,790,
scooby_state_ffffffff789f1a20|28|0 709,1,7,2,0,1,2,2,3,1,1,2,2,3,54,790,
scooby_state_ffffffff789f1cf0|5|0 773,2,0,0,1,2,0,1,3,0,0,2,0,0,3,787,
scooby_state_ffffffff789f1a20|59|0 708,1,7,1,0,4,0,1,2,0,0,1,0,2,59,786,
scooby_state_ffffffff789f1a08|52|0 784,0,0,0,0,0,0,0,0,0,0,0,0,0,0,784,
scooby_state_ffffffff789f1cf0|14|0 766,0,2,3,1,1,1,0,0,1,1,1,2,1,3,783,
scooby_state_ffffffff7899c874|30|0 778,0,1,0,0,0,0,0,1,0,0,2,0,0,0,782,
scooby_state_ffffffff789f1a00|60|1 750,1,0,2,1,4,0,0,0,6,0,2,2,1,12,781,
scooby_state_ffffffff789f1a00|8|1 749,1,1,2,0,2,2,1,0,1,2,2,1,0,15,779,
scooby_state_ffffffff789f1cf0|38|0 760,1,1,0,0,3,1,1,0,0,0,1,3,2,3,776,
scooby_state_ffffffff789f1cf0|1|0 758,3,0,0,3,2,0,0,0,0,2,0,1,2,5,776,
scooby_state_ffffffff789f1a20|22|0 696,1,12,1,1,2,2,0,1,3,1,3,1,1,51,776,
scooby_state_ffffffff789f1a08|34|0 774,0,0,0,0,0,0,0,0,0,0,0,0,0,0,774,
scooby_state_ffffffff789f1cf0|6|0 755,3,2,0,1,1,3,1,0,1,1,1,0,2,2,773,
scooby_state_ffffffff789f1cf0|3|0 758,0,1,2,2,0,0,0,0,0,0,3,2,1,4,773,
scooby_state_ffffffff789f1a20|53|0 694,0,10,2,0,1,1,2,0,1,1,1,1,2,57,773,
scooby_state_ffffffff789f1cf0|24|0 749,0,1,4,0,2,1,2,2,3,2,2,0,1,4,773,
scooby_state_ffffffff7899c874|32|0 771,0,0,1,0,0,0,0,0,0,0,0,0,0,0,772,
scooby_state_ffffffff789f1a20|18|0 691,1,8,3,0,0,0,1,0,1,0,2,0,2,63,772,
scooby_state_ffffffff789f1cf0|39|0 753,3,3,0,1,1,0,1,1,1,1,0,0,0,6,771,
scooby_state_ffffffff789f1cf0|29|0 756,3,0,1,1,1,1,0,1,0,0,1,0,2,4,771,
scooby_state_ffffffff789f1cf0|21|0 751,1,1,1,0,1,2,1,1,2,0,2,3,0,2,768,
scooby_state_ffffffff789f1a00|16|1 741,1,2,0,0,1,2,1,1,2,1,2,0,2,12,768,
scooby_state_ffffffff789f1a00|4|1 741,0,4,0,1,0,0,1,2,2,3,0,1,0,12,767,
scooby_state_ffffffff789f1a00|58|1 738,0,2,0,0,0,2,3,1,2,1,1,5,1,9,765,
scooby_state_ffffffff7899c874|20|0 763,0,0,0,0,0,0,0,0,0,0,0,1,0,0,764,
scooby_state_ffffffff789f1cf0|23|0 745,2,0,2,2,1,1,1,0,1,1,2,0,0,5,763,
scooby_state_ffffffff789f1a00|26|1 727,6,2,2,0,0,3,1,3,0,3,0,1,2,13,763,
scooby_state_ffffffff789f1cf0|11|0 744,1,1,0,0,0,0,0,0,2,1,1,3,0,4,757,
scooby_state_ffffffff789f1a08|36|0 754,0,0,0,0,1,0,1,1,0,0,0,0,0,0,757,
scooby_state_ffffffff789f1cf0|0|0 739,0,1,0,2,1,2,2,0,0,1,2,1,1,5,757,
scooby_state_ffffffff789f1a08|48|0 755,0,0,0,1,0,0,0,0,0,0,0,0,0,0,756,
scooby_state_ffffffff789f1a00|42|1 725,2,1,2,1,3,2,2,4,1,0,0,2,0,11,756,
scooby_state_ffffffff789f1a00|32|1 728,3,1,0,2,1,3,1,1,1,1,0,0,2,10,754,
scooby_state_ffffffff789f1cf0|32|0 731,0,1,1,1,1,2,2,2,0,3,3,0,0,6,753,
scooby_state_1008c78|33|0 629,2,3,0,1,0,2,0,0,1,3,0,0,1,111,753,
scooby_state_ffffffff7899c874|34|0 748,0,1,0,0,0,1,0,0,2,0,0,0,0,0,752,
scooby_state_ffffffff789f1a00|48|1 735,2,1,0,2,1,0,1,1,0,1,2,0,2,4,752,
scooby_state_ffffffff789f1cf0|22|0 729,5,1,2,2,2,0,1,1,0,2,0,2,0,5,752,
scooby_state_ffffffff789f1a08|1|0 749,0,0,1,0,0,0,0,0,2,0,0,0,0,0,752,
scooby_state_ffffffff789f1cf0|19|0 737,0,0,2,1,1,3,1,0,0,1,1,0,1,4,752,
scooby_state_ffffffff789f1cf0|7|0 733,0,2,2,1,0,2,2,0,0,2,1,1,1,4,751,
scooby_state_1008c78|58|0 624,0,3,1,0,1,0,0,1,1,0,1,2,1,114,749,
scooby_state_ffffffff789f1a00|28|1 730,2,0,2,1,2,0,1,1,0,1,0,1,1,7,749,
scooby_state_ffffffff789f1cf0|15|0 728,2,0,2,1,2,1,0,2,0,2,1,2,1,3,747,
scooby_state_ffffffff789f1cf0|10|0 734,1,0,0,1,0,2,0,0,0,1,0,3,3,2,747,
scooby_state_ffffffff789f1cf0|18|0 729,2,1,0,1,1,1,2,0,1,0,2,1,1,4,746,
scooby_state_1008c78|56|0 626,0,2,0,1,4,0,0,1,0,0,0,0,1,111,746,
scooby_state_ffffffff789f1cf0|40|0 727,2,3,3,1,1,1,0,2,2,0,1,0,1,1,745,
scooby_state_ffffffff789f1cf0|9|0 728,3,2,0,0,0,1,0,0,0,0,2,0,1,6,743,
scooby_state_ffffffff789f1cf0|36|0 732,0,0,2,0,1,0,0,1,1,2,0,0,1,2,742,
scooby_state_ffffffff789f1a00|44|1 711,0,3,2,2,0,1,0,2,0,1,2,0,3,15,742,
scooby_state_ffffffff789f1a00|22|1 713,3,1,2,0,2,0,2,1,3,1,1,2,1,9,741,
scooby_state_ffffffff789f1a00|2|1 718,1,1,3,1,1,4,0,0,1,3,0,0,1,7,741,
scooby_state_ffffffff789f1cf0|8|0 724,2,0,0,2,0,3,3,0,1,0,0,2,3,1,741,
scooby_state_ffffffff789f1cf0|4|0 724,1,1,0,1,1,1,3,2,1,0,0,1,1,3,740,
scooby_state_ffffffff789f1a00|62|1 713,2,1,1,0,2,4,1,1,2,1,2,1,3,6,740,
scooby_state_ffffffff789f1cf0|35|0 723,0,0,1,3,2,0,0,1,1,2,1,2,1,1,738,
scooby_state_ffffffff789f1a00|14|1 711,2,2,2,1,0,2,1,1,2,2,4,1,1,6,738,
scooby_state_ffffffff789f1a00|24|1 712,2,0,2,0,0,2,1,2,1,0,0,4,2,8,736,
scooby_state_ffffffff789f1cf0|28|0 714,0,2,1,3,1,1,2,1,3,0,1,2,0,3,734,
scooby_state_ffffffff789f1cf0|25|0 715,2,0,0,1,0,1,0,0,2,0,1,0,3,7,732,
scooby_state_ffffffff789f1cf0|13|0 719,2,0,1,0,1,0,0,1,1,1,0,1,2,3,732,
scooby_state_ffffffff789f1cf0|33|0 713,2,3,0,2,1,3,1,0,0,2,0,0,1,3,731,
scooby_state_ffffffff789f1a00|50|1 702,1,3,1,1,1,1,0,1,2,2,2,2,1,11,731,
scooby_state_ffffffff789f1a1c|1|1 711,1,1,0,2,1,2,0,0,0,1,2,2,2,4,729,
scooby_state_ffffffff789f1cf0|17|0 712,0,2,1,2,0,2,1,0,0,0,1,2,0,2,725,
scooby_state_ffffffff789f1cf0|37|0 704,1,1,0,1,1,3,0,1,1,1,2,2,1,5,724,
scooby_state_ffffffff789f1a00|56|1 697,3,0,1,1,1,1,1,2,1,0,6,0,1,9,724,
scooby_state_ffffffff789f1cf0|42|0 704,2,0,1,1,4,0,4,3,0,0,0,2,2,1,724,
scooby_state_ffffffff789f1cf0|12|0 706,1,2,2,0,1,2,0,0,2,0,3,0,1,4,724,
scooby_state_ffffffff789f1cf0|30|0 701,5,1,1,3,0,1,0,2,2,1,1,0,1,4,723,
scooby_state_ffffffff789f1cf0|27|0 709,0,0,0,2,0,0,1,0,0,2,0,0,1,3,718,
scooby_state_ffffffff789f1a00|52|1 690,1,1,0,1,4,0,0,0,3,1,1,1,3,9,715,
scooby_state_ffffffff789f1a00|38|1 679,3,3,2,1,2,2,2,2,2,0,2,2,0,9,711,
scooby_state_ffffffff789f1a00|6|1 676,2,3,1,2,2,0,0,0,2,3,3,2,1,5,702,
scooby_state_ffffffff789f1cf0|44|0 670,2,1,0,2,1,3,1,1,0,2,1,0,1,6,691,
scooby_state_ffffffff789f1a00|30|1 661,1,2,2,2,2,0,1,1,2,1,0,0,4,7,686,
scooby_state_ffffffff789f1cf0|62|0 661,1,2,1,0,0,1,1,2,2,1,2,0,2,7,683,
scooby_state_ffffffff789f1cf0|41|0 663,0,0,3,0,0,0,0,1,1,1,2,4,0,1,676,
scooby_state_ffffffff789f1cf0|20|0 661,0,2,0,0,1,1,2,0,1,1,0,1,2,3,675,
scooby_state_ffffffff789f1cf0|53|0 660,0,0,1,2,2,0,3,2,0,0,1,1,2,1,675,
scooby_state_ffffffff789f1a00|45|1 646,0,0,1,1,0,1,2,0,1,1,5,0,3,11,672,
scooby_state_ffffffff789f1cf0|43|0 651,6,3,1,1,0,1,0,1,0,0,1,0,0,5,670,
scooby_state_ffffffff789f1cf0|60|0 647,3,0,1,2,1,0,0,0,1,2,2,0,3,5,667,
scooby_state_ffffffff789f1cf0|45|0 651,1,1,3,0,0,2,0,0,0,0,1,3,2,2,666,
scooby_state_ffffffff789f1cf0|49|0 644,1,2,3,0,2,1,1,0,0,2,2,1,0,4,663,
scooby_state_ffffffff789f1cf0|46|0 644,3,4,1,1,0,1,2,1,0,0,0,1,2,2,662,
scooby_state_ffffffff789f1cf0|48|0 644,3,1,1,2,0,1,1,0,1,0,1,2,1,3,661,
scooby_state_ffffffff789f1a00|46|1 638,1,0,0,5,4,1,1,1,1,1,0,0,2,5,660,
scooby_state_ffffffff789f1cf0|47|0 646,0,0,0,0,0,2,1,0,2,0,0,2,1,4,658,
scooby_state_ffffffff789f1cf0|56|0 643,0,3,2,1,0,1,1,0,0,0,0,0,0,6,657,
scooby_state_ffffffff789f1cf0|51|0 633,0,2,2,1,2,0,1,2,3,0,1,0,2,7,656,
scooby_state_ffffffff789f1a00|43|1 636,1,1,2,0,2,1,1,0,1,2,2,1,0,6,656,
scooby_state_ffffffff789f1cf0|58|0 639,1,0,0,1,3,0,1,1,2,1,3,0,0,2,654,
scooby_state_ffffffff789f1cf0|52|0 634,2,0,3,0,0,2,1,0,3,0,2,1,0,5,653,
scooby_state_ffffffff789f1a00|9|1 629,2,0,0,1,3,0,1,3,2,3,2,0,0,7,653,
scooby_state_ffffffff789f1a00|25|1 631,1,2,1,0,2,2,1,0,0,0,1,2,0,8,651,
scooby_state_ffffffff789f1a00|23|1 627,1,1,1,0,3,0,3,1,3,1,0,0,2,5,648,
scooby_state_ffffffff789f1a00|11|1 620,8,2,4,3,1,0,0,0,0,0,0,1,2,6,647,
scooby_state_ffffffff789f1a1c|48|1 628,1,1,4,3,2,1,1,0,0,1,0,3,0,1,646,
scooby_state_ffffffff789f1a00|54|1 623,0,0,0,0,1,1,1,1,0,0,1,2,2,13,645,
scooby_state_ffffffff789f1a00|13|1 618,2,0,3,5,1,1,0,0,2,1,1,0,2,9,645,
scooby_state_ffffffff789f1a1c|63|1 630,0,2,1,1,1,0,0,1,1,0,3,1,1,2,644,
scooby_state_ffffffff789f1a00|37|1 607,2,2,1,0,2,2,0,1,2,3,0,7,1,11,641,
scooby_state_ffffffff789f1cf0|59|0 621,0,0,3,1,1,3,0,2,0,4,1,0,2,2,640,
scooby_state_ffffffff789f1a1c|16|1 628,0,1,1,0,2,1,0,0,1,1,2,1,1,0,639,
scooby_state_ffffffff789f1a00|39|1 619,2,1,1,1,1,0,1,0,1,0,2,0,2,8,639,
scooby_state_ffffffff789f1a00|5|1 615,1,2,1,1,0,0,0,2,2,2,1,0,2,9,638,
scooby_state_ffffffff789f1cf0|55|0 615,1,1,3,2,1,1,4,1,3,0,1,1,1,2,637,
scooby_state_ffffffff789f1cf0|50|0 616,1,1,0,1,3,3,2,0,3,1,1,0,0,5,637,
scooby_state_ffffffff789f1a1c|33|1 610,0,5,2,0,2,0,2,2,3,0,5,1,1,3,636,
scooby_state_ffffffff789f1a00|3|1 614,1,0,0,1,1,2,0,0,1,1,2,3,0,9,635,
scooby_state_ffffffff789f1cf0|63|0 622,1,1,0,2,1,3,0,0,2,0,0,0,0,3,635,
scooby_state_ffffffff789f1a00|7|1 617,1,0,0,1,0,0,1,1,2,0,0,3,0,8,634,
scooby_state_ffffffff789f1a00|57|1 610,1,2,2,3,0,1,3,0,0,1,3,0,1,5,632,
scooby_state_ffffffff789f1a00|15|1 604,1,1,1,3,1,2,0,1,0,1,3,0,2,12,632,
scooby_state_ffffffff789f1a00|47|1 600,1,0,3,0,2,2,1,4,0,0,1,1,0,17,632,
scooby_state_ffffffff789f1cf0|54|0 613,3,0,1,2,0,2,2,0,1,1,2,2,0,1,630,
scooby_state_ffffffff789f1a00|61|1 603,3,0,0,2,0,0,0,2,2,0,2,1,2,9,626,
scooby_state_ffffffff789f1a00|21|1 594,1,2,3,2,1,3,1,3,0,1,0,1,2,9,623,
scooby_state_ffffffff789f1cf0|61|0 598,2,1,2,0,2,2,1,2,1,1,1,0,4,1,618,
scooby_state_ffffffff789f1a00|49|1 590,0,1,2,1,1,1,2,0,0,1,0,0,3,15,617,
scooby_state_ffffffff789f1a00|41|1 603,0,1,0,2,2,1,1,0,1,0,0,1,2,3,617,
scooby_state_ffffffff789f1a00|55|1 589,1,2,3,0,4,3,2,0,0,1,0,3,2,6,616,
scooby_state_ffffffff789f1a00|59|1 592,2,1,0,0,0,1,0,3,2,1,2,3,1,7,615,
scooby_state_ffffffff789f1a00|29|1 587,0,3,0,0,0,3,1,1,1,2,4,0,2,10,614,
scooby_state_ffffffff789f1cf0|57|0 597,3,1,0,0,1,1,3,1,2,1,1,0,1,2,614,
scooby_state_ffffffff789f1a00|63|1 595,0,0,4,3,2,0,1,0,0,0,0,1,1,5,612,
scooby_state_ffffffff789f1a00|17|1 585,0,3,2,1,2,2,0,2,1,2,1,0,0,9,610,
scooby_state_ffffffff789f1a00|27|1 588,0,0,0,1,0,1,1,2,1,0,1,0,2,9,606,
[...]
scooby_state_ffffffff789ac59c|20|-42 1,0,0,0,0,0,0,0,0,0,0,0,0,0,0,1,
scooby_state_ffffffff789ac668|21|-19 1,0,0,0,0,0,0,0,0,0,0,0,0,0,0,1,
scooby_state_ffffffff789ac604|28|0 0,0,0,0,0,0,0,0,0,0,0,1,0,0,0,1,
scooby_state_ffffffff789ac664|29|1 1,0,0,0,0,0,0,0,0,0,0,0,0,0,0,1,
scooby_state_ffffffff789ac668|12|0 1,0,0,0,0,0,0,0,0,0,0,0,0,0,0,1,
scooby_state_11416ec|57|-5 1,0,0,0,0,0,0,0,0,0,0,0,0,0,0,1,
scooby_state_ffffffff789ac598|57|3 1,0,0,0,0,0,0,0,0,0,0,0,0,0,0,1,
scooby_state_12cfed0|63|0 1,0,0,0,0,0,0,0,0,0,0,0,0,0,0,1,
scooby_state_ffffffff789ac62c|7|1 1,0,0,0,0,0,0,0,0,0,0,0,0,0,0,1,
scooby_state_ffffffff789ac59c|10|-22 1,0,0,0,0,0,0,0,0,0,0,0,0,0,0,1,
scooby_state_ffffffff7de4126c|3|-1 1,0,0,0,0,0,0,0,0,0,0,0,0,0,0,1,
scooby_state_ffffffff78b1cd10|47|-16 1,0,0,0,0,0,0,0,0,0,0,0,0,0,0,1,
scooby_state_ffffffff789ac600|36|-6 1,0,0,0,0,0,0,0,0,0,0,0,0,0,0,1,
scooby_state_ffffffff78b5b988|46|15 1,0,0,0,0,0,0,0,0,0,0,0,0,0,0,1,
scooby_state_ffffffff789ac59c|52|0 1,0,0,0,0,0,0,0,0,0,0,0,0,0,0,1,
scooby_state_ffffffff7ed63190|6|1 1,0,0,0,0,0,0,0,0,0,0,0,0,0,0,1,
scooby_state_1001a0c|56|0 1,0,0,0,0,0,0,0,0,0,0,0,0,0,0,1,
scooby_state_12973bc|6|0 1,0,0,0,0,0,0,0,0,0,0,0,0,0,0,1,
scooby_state_12c88a4|57|22 1,0,0,0,0,0,0,0,0,0,0,0,0,0,0,1,
scooby_state_104c57c|21|0 1,0,0,0,0,0,0,0,0,0,0,0,0,0,0,1,
scooby_state_ffffffff789ac598|60|1 1,0,0,0,0,0,0,0,0,0,0,0,0,0,0,1,
scooby_state_7bad3a10|18|-20 1,0,0,0,0,0,0,0,0,0,0,0,0,0,0,1,
scooby_state_ffffffff789ac59c|13|-12 1,0,0,0,0,0,0,0,0,0,0,0,0,0,0,1,
scooby_state_1001a24|15|1 1,0,0,0,0,0,0,0,0,0,0,0,0,0,0,1,
scooby_state_ffffffff789ac604|54|-6 0,0,0,0,0,0,0,0,0,0,0,1,0,0,0,1,
scooby_state_ffffffff789ac604|6|-23 0,0,0,0,0,0,0,0,0,0,0,1,0,0,0,1,
scooby_state_ffffffff789ac600|5|-3 1,0,0,0,0,0,0,0,0,0,0,0,0,0,0,1,
scooby_state_ffffffff78b1e9d8|60|0 1,0,0,0,0,0,0,0,0,0,0,0,0,0,0,1,
scooby_state_ffffffff789f1a90|62|0 1,0,0,0,0,0,0,0,0,0,0,0,0,0,0,1,
scooby_state_ffffffff789ac668|45|28 1,0,0,0,0,0,0,0,0,0,0,0,0,0,0,1,
scooby_state_ffffffff789f1cf0|10|-41 0,0,1,0,0,0,0,0,0,0,0,0,0,0,0,1,
scooby_state_ffffffff789f1a08|13|-1 1,0,0,0,0,0,0,0,0,0,0,0,0,0,0,1,
scooby_state_1008c78|59|20 1,0,0,0,0,0,0,0,0,0,0,0,0,0,0,1,
scooby_state_ffffffff78a2c70c|59|14 1,0,0,0,0,0,0,0,0,0,0,0,0,0,0,1,
scooby_state_ffffffff789f1cf0|22|-41 0,0,1,0,0,0,0,0,0,0,0,0,0,0,0,1,
scooby_state_ffffffff78a9b99c|16|1 1,0,0,0,0,0,0,0,0,0,0,0,0,0,0,1,
scooby_state_ffffffff789f1cf0|25|6 0,0,0,0,0,0,1,0,0,0,0,0,0,0,0,1,
scooby_state_ffffffff7885a77c|34|3 1,0,0,0,0,0,0,0,0,0,0,0,0,0,0,1,
scooby_state_ffffffff789868bc|43|1 1,0,0,0,0,0,0,0,0,0,0,0,0,0,0,1,
scooby_state_ffffffff78a44648|17|9 1,0,0,0,0,0,0,0,0,0,0,0,0,0,0,1,
scooby_state_12cf95c|18|1 1,0,0,0,0,0,0,0,0,0,0,0,0,0,0,1,
scooby_state_1008c78|32|10 0,0,0,0,0,0,0,0,0,0,0,0,0,0,1,1,
scooby_state_ffffffff789f1c7c|47|12 1,0,0,0,0,0,0,0,0,0,0,0,0,0,0,1,
scooby_state_133f774|30|0 1,0,0,0,0,0,0,0,0,0,0,0,0,0,0,1,
scooby_state_ffffffff78b2fbe8|29|0 1,0,0,0,0,0,0,0,0,0,0,0,0,0,0,1,
scooby_state_1008c78|20|-31 0,0,0,0,0,0,0,0,0,0,0,1,0,0,0,1,
scooby_state_ffffffff789f1cf0|32|8 1,0,0,0,0,0,0,0,0,0,0,0,0,0,0,1,
scooby_state_ffffffff789f1cf0|63|42 0,0,0,0,0,0,0,0,0,0,0,1,0,0,0,1,
scooby_state_1008c78|53|-1 0,1,0,0,0,0,0,0,0,0,0,0,0,0,0,1,
scooby_state_ffffffff78a36b54|51|0 1,0,0,0,0,0,0,0,0,0,0,0,0,0,0,1,
scooby_state_ffffffff78a92610|4|0 1,0,0,0,0,0,0,0,0,0,0,0,0,0,0,1,
scooby_state_121478c|32|2 1,0,0,0,0,0,0,0,0,0,0,0,0,0,0,1,
scooby_state_133d628|22|-6 1,0,0,0,0,0,0,0,0,0,0,0,0,0,0,1,
scooby_state_133d628|16|-3 1,0,0,0,0,0,0,0,0,0,0,0,0,0,0,1,
scooby_state_ffffffff789f1cf0|54|31 1,0,0,0,0,0,0,0,0,0,0,0,0,0,0,1,
scooby_state_ffffffff789f1cf0|1|1 1,0,0,0,0,0,0,0,0,0,0,0,0,0,0,1,
scooby_state_1008aac|52|6 1,0,0,0,0,0,0,0,0,0,0,0,0,0,0,1,
scooby_state_10f6134|52|34 1,0,0,0,0,0,0,0,0,0,0,0,0,0,0,1,
scooby_state_100bfb4|53|1 1,0,0,0,0,0,0,0,0,0,0,0,0,0,0,1,
scooby_state_12146e4|21|-1 1,0,0,0,0,0,0,0,0,0,0,0,0,0,0,1,
scooby_state_13d41d8|35|-1 1,0,0,0,0,0,0,0,0,0,0,0,0,0,0,1,
scooby_state_133d628|13|-5 1,0,0,0,0,0,0,0,0,0,0,0,0,0,0,1,
scooby_state_1008aac|62|10 1,0,0,0,0,0,0,0,0,0,0,0,0,0,0,1,
scooby_state_10f61d0|30|0 1,0,0,0,0,0,0,0,0,0,0,0,0,0,0,1,
scooby_state_ffffffff78b3dde0|61|-1 1,0,0,0,0,0,0,0,0,0,0,0,0,0,0,1,
scooby_state_ffffffff78a9b930|13|0 1,0,0,0,0,0,0,0,0,0,0,0,0,0,0,1,
scooby_state_ffffffff78b01868|61|1 1,0,0,0,0,0,0,0,0,0,0,0,0,0,0,1,
scooby_state_ffffffff78a2c784|29|10 1,0,0,0,0,0,0,0,0,0,0,0,0,0,0,1,
scooby_state_ffffffff78b5afcc|0|0 1,0,0,0,0,0,0,0,0,0,0,0,0,0,0,1,
scooby_state_104afe4|27|-7 1,0,0,0,0,0,0,0,0,0,0,0,0,0,0,1,
scooby_state_12146e4|31|-1 1,0,0,0,0,0,0,0,0,0,0,0,0,0,0,1,
scooby_state_133d628|42|0 1,0,0,0,0,0,0,0,0,0,0,0,0,0,0,1,
scooby_state_119a400|16|0 1,0,0,0,0,0,0,0,0,0,0,0,0,0,0,1,
scooby_state_1008aac|59|-3 1,0,0,0,0,0,0,0,0,0,0,0,0,0,0,1,
scooby_state_1008aac|31|9 1,0,0,0,0,0,0,0,0,0,0,0,0,0,0,1,
scooby_state_1008aac|13|-17 1,0,0,0,0,0,0,0,0,0,0,0,0,0,0,1,
scooby_state_ffffffff78a9b930|43|0 1,0,0,0,0,0,0,0,0,0,0,0,0,0,0,1,
scooby_state_ffffffff789ac59c|15|-6 1,0,0,0,0,0,0,0,0,0,0,0,0,0,0,1,
scooby_state_ffffffff789e1350|63|8 1,0,0,0,0,0,0,0,0,0,0,0,0,0,0,1,
scooby_state_ffffffff789ac598|61|1 1,0,0,0,0,0,0,0,0,0,0,0,0,0,0,1,
scooby_state_ffffffff78b39ba0|40|8 1,0,0,0,0,0,0,0,0,0,0,0,0,0,0,1,
scooby_state_1321e88|14|-8 1,0,0,0,0,0,0,0,0,0,0,0,0,0,0,1,
scooby_state_12d19c0|39|15 1,0,0,0,0,0,0,0,0,0,0,0,0,0,0,1,
scooby_state_12cf890|26|2 1,0,0,0,0,0,0,0,0,0,0,0,0,0,0,1,
scooby_state_ffffffff78a1e880|9|1 1,0,0,0,0,0,0,0,0,0,0,0,0,0,0,1,
scooby_state_ffffffff789ac5ec|17|-2 1,0,0,0,0,0,0,0,0,0,0,0,0,0,0,1,
scooby_state_ffffffff789ac600|31|-2 1,0,0,0,0,0,0,0,0,0,0,0,0,0,0,1,
scooby_state_ffffffff789ac668|3|-2 1,0,0,0,0,0,0,0,0,0,0,0,0,0,0,1,
scooby_state_1008c78|47|7 1,0,0,0,0,0,0,0,0,0,0,0,0,0,0,1,
scooby_state_ffffffff78a9b99c|44|1 1,0,0,0,0,0,0,0,0,0,0,0,0,0,0,1,
scooby_state_ffffffff789ac6b4|20|-2 1,0,0,0,0,0,0,0,0,0,0,0,0,0,0,1,
scooby_state_ffffffff789ac668|20|10 1,0,0,0,0,0,0,0,0,0,0,0,0,0,0,1,
scooby_state_ffffffff7895d030|61|0 1,0,0,0,0,0,0,0,0,0,0,0,0,0,0,1,
scooby_state_ffffffff78a4465c|57|1 1,0,0,0,0,0,0,0,0,0,0,0,0,0,0,1,
scooby_state_1008aac|32|-13 1,0,0,0,0,0,0,0,0,0,0,0,0,0,0,1,
scooby_state_ffffffff78b1d17c|31|1 1,0,0,0,0,0,0,0,0,0,0,0,0,0,0,1,
scooby_state_ffffffff78a9b9c4|22|10 1,0,0,0,0,0,0,0,0,0,0,0,0,0,0,1,
scooby_state_1008aac|30|3 1,0,0,0,0,0,0,0,0,0,0,0,0,0,0,1,
scooby_state_133d650|28|3 1,0,0,0,0,0,0,0,0,0,0,0,0,0,0,1,
scooby_state_10f618c|18|-1 1,0,0,0,0,0,0,0,0,0,0,0,0,0,0,1,
scooby_state_12c91e8|59|-1 1,0,0,0,0,0,0,0,0,0,0,0,0,0,0,1,
scooby_state_ffffffff78b2f994|17|1 1,0,0,0,0,0,0,0,0,0,0,0,0,0,0,1,
scooby_state_ffffffff789cf3dc|35|13 1,0,0,0,0,0,0,0,0,0,0,0,0,0,0,1,
scooby_state_1008aac|56|55 1,0,0,0,0,0,0,0,0,0,0,0,0,0,0,1,
scooby_state_132288c|34|6 1,0,0,0,0,0,0,0,0,0,0,0,0,0,0,1,
scooby_state_ffffffff7df3a0e4|12|-1 1,0,0,0,0,0,0,0,0,0,0,0,0,0,0,1,
scooby_state_ffffffff78a2c70c|30|0 1,0,0,0,0,0,0,0,0,0,0,0,0,0,0,1,
scooby_state_1141ddc|8|7 1,0,0,0,0,0,0,0,0,0,0,0,0,0,0,1,
scooby_state_100acc4|51|13 1,0,0,0,0,0,0,0,0,0,0,0,0,0,0,1,
scooby_state_ffffffff788aa9e8|39|1 1,0,0,0,0,0,0,0,0,0,0,0,0,0,0,1,
scooby_state_100adc0|55|2 1,0,0,0,0,0,0,0,0,0,0,0,0,0,0,1,
scooby_state_12d19dc|18|2 1,0,0,0,0,0,0,0,0,0,0,0,0,0,0,1,
scooby_state_13c9b88|38|0 1,0,0,0,0,0,0,0,0,0,0,0,0,0,0,1,
scooby_state_10b1f80|5|1 1,0,0,0,0,0,0,0,0,0,0,0,0,0,0,1,
scooby_state_13c9c48|35|2 1,0,0,0,0,0,0,0,0,0,0,0,0,0,0,1,
scooby_state_13c9c50|39|4 1,0,0,0,0,0,0,0,0,0,0,0,0,0,0,1,
scooby_state_ffffffff78b62c88|32|4 1,0,0,0,0,0,0,0,0,0,0,0,0,0,0,1,
scooby_state_13cc4ac|40|1 1,0,0,0,0,0,0,0,0,0,0,0,0,0,0,1,
scooby_state_ffffffff78b4bf1c|55|2 1,0,0,0,0,0,0,0,0,0,0,0,0,0,0,1,
scooby_state_12989c8|39|0 1,0,0,0,0,0,0,0,0,0,0,0,0,0,0,1,
scooby_state_1008aac|56|20 0,0,0,0,0,0,0,0,0,0,0,1,0,0,0,1,
scooby_state_104af20|60|-3 1,0,0,0,0,0,0,0,0,0,0,0,0,0,0,1,
scooby_state_1050280|44|-2 1,0,0,0,0,0,0,0,0,0,0,0,0,0,0,1,
scooby_state_1326c48|58|0 1,0,0,0,0,0,0,0,0,0,0,0,0,0,0,1,
scooby_state_ffffffff789388a8|29|0 1,0,0,0,0,0,0,0,0,0,0,0,0,0,0,1,
scooby_state_131e6c0|27|-3 1,0,0,0,0,0,0,0,0,0,0,0,0,0,0,1,
scooby_state_ffffffff78b62c8c|32|-5 1,0,0,0,0,0,0,0,0,0,0,0,0,0,0,1,
scooby_state_ffffffff789a88b0|16|1 1,0,0,0,0,0,0,0,0,0,0,0,0,0,0,1,
scooby_state_1136c00|25|0 1,0,0,0,0,0,0,0,0,0,0,0,0,0,0,1,
scooby_state_ffffffff78a9bbf4|3|1 1,0,0,0,0,0,0,0,0,0,0,0,0,0,0,1,
scooby_state_ffffffff789ac604|26|16 0,0,0,0,0,0,0,0,0,0,0,1,0,0,0,1,
scooby_state_7be45840|33|-1 1,0,0,0,0,0,0,0,0,0,0,0,0,0,0,1,
scooby_state_ffffffff789f1cf0|52|14 1,0,0,0,0,0,0,0,0,0,0,0,0,0,0,1,
scooby_state_ffffffff789f1c7c|44|13 1,0,0,0,0,0,0,0,0,0,0,0,0,0,0,1,
scooby_state_ffffffff78986864|40|1 1,0,0,0,0,0,0,0,0,0,0,0,0,0,0,1,
scooby_state_ffffffff78a83958|23|1 1,0,0,0,0,0,0,0,0,0,0,0,0,0,0,1,
scooby_state_ffffffff789f1cf0|19|-41 0,0,1,0,0,0,0,0,0,0,0,0,0,0,0,1,
scooby_state_131fa94|38|-1 1,0,0,0,0,0,0,0,0,0,0,0,0,0,0,1,
scooby_state_1001a40|53|7 1,0,0,0,0,0,0,0,0,0,0,0,0,0,0,1,
scooby_state_1008b6c|23|-10 1,0,0,0,0,0,0,0,0,0,0,0,0,0,0,1,
scooby_state_1008c78|16|-16 1,0,0,0,0,0,0,0,0,0,0,0,0,0,0,1,
scooby_state_ffffffff789f1a2c|60|1 1,0,0,0,0,0,0,0,0,0,0,0,0,0,0,1,
scooby_state_1008c78|32|30 1,0,0,0,0,0,0,0,0,0,0,0,0,0,0,1,
scooby_state_1008c78|35|3 1,0,0,0,0,0,0,0,0,0,0,0,0,0,0,1,
scooby_state_ffffffff789f1c7c|47|26 1,0,0,0,0,0,0,0,0,0,0,0,0,0,0,1,
scooby_state_ffffffff788c1228|10|1 1,0,0,0,0,0,0,0,0,0,0,0,0,0,0,1,
scooby_state_114b230|8|0 1,0,0,0,0,0,0,0,0,0,0,0,0,0,0,1,
scooby_state_131fc20|48|2 1,0,0,0,0,0,0,0,0,0,0,0,0,0,0,1,
scooby_state_ffffffff7ec00e48|27|6 1,0,0,0,0,0,0,0,0,0,0,0,0,0,0,1,
scooby_state_ffffffff789f1c24|25|0 1,0,0,0,0,0,0,0,0,0,0,0,0,0,0,1,
scooby_state_12c98f0|56|-1 1,0,0,0,0,0,0,0,0,0,0,0,0,0,0,1,
scooby_state_104c448|39|2 1,0,0,0,0,0,0,0,0,0,0,0,0,0,0,1,
scooby_state_1063200|8|-53 1,0,0,0,0,0,0,0,0,0,0,0,0,0,0,1,
scooby_state_ffffffff789a8da4|8|1 1,0,0,0,0,0,0,0,0,0,0,0,0,0,0,1,
scooby_state_ffffffff7897bb00|35|0 1,0,0,0,0,0,0,0,0,0,0,0,0,0,0,1,
scooby_state_1008aac|44|22 1,0,0,0,0,0,0,0,0,0,0,0,0,0,0,1,
scooby_state_ffffffff7895d224|8|0 1,0,0,0,0,0,0,0,0,0,0,0,0,0,0,1,
scooby_state_ffffffff78a33120|1|0 1,0,0,0,0,0,0,0,0,0,0,0,0,0,0,1,
scooby_state_ffffffff789f1cf0|22|-4 1,0,0,0,0,0,0,0,0,0,0,0,0,0,0,1,
scooby_state_ffffffff7895d224|41|0 1,0,0,0,0,0,0,0,0,0,0,0,0,0,0,1,
scooby_state_ffffffff7895d268|48|1 1,0,0,0,0,0,0,0,0,0,0,0,0,0,0,1,
scooby_state_ffffffff7895d288|40|-8 1,0,0,0,0,0,0,0,0,0,0,0,0,0,0,1,
scooby_state_104afe4|36|31 1,0,0,0,0,0,0,0,0,0,0,0,0,0,0,1,
scooby_state_ffffffff789f1c44|26|1 0,0,1,0,0,0,0,0,0,0,0,0,0,0,0,1,
scooby_state_ffffffff789ac598|51|-2 1,0,0,0,0,0,0,0,0,0,0,0,0,0,0,1,
scooby_state_1008ac8|43|-3 1,0,0,0,0,0,0,0,0,0,0,0,0,0,0,1,
scooby_state_133d504|24|3 1,0,0,0,0,0,0,0,0,0,0,0,0,0,0,1,
scooby_state_ffffffff789f1c48|0|0 1,0,0,0,0,0,0,0,0,0,0,0,0,0,0,1,
scooby_state_ffffffff7895d040|1|-11 1,0,0,0,0,0,0,0,0,0,0,0,0,0,0,1,
scooby_state_1008c78|16|10 0,0,0,0,0,1,0,0,0,0,0,0,0,0,0,1,
scooby_state_ffffffff789f1c7c|15|15 1,0,0,0,0,0,0,0,0,0,0,0,0,0,0,1,
scooby_state_1012260|40|1 1,0,0,0,0,0,0,0,0,0,0,0,0,0,0,1,
scooby_state_ffffffff789f1cf0|3|-56 1,0,0,0,0,0,0,0,0,0,0,0,0,0,0,1,
scooby_state_1141640|19|0 1,0,0,0,0,0,0,0,0,0,0,0,0,0,0,1,
scooby_state_1008aac|19|-7 1,0,0,0,0,0,0,0,0,0,0,0,0,0,0,1,
scooby_state_ffffffff78a9b930|45|2 1,0,0,0,0,0,0,0,0,0,0,0,0,0,0,1,
scooby_state_ffffffff789ac668|17|3 1,0,0,0,0,0,0,0,0,0,0,0,0,0,0,1,
scooby_state_1008aac|18|-7 1,0,0,0,0,0,0,0,0,0,0,0,0,0,0,1,
scooby_state_12cb788|11|-1 1,0,0,0,0,0,0,0,0,0,0,0,0,0,0,1,
scooby_state_12c88a4|43|3 1,0,0,0,0,0,0,0,0,0,0,0,0,0,0,1,
scooby_state_ffffffff788fe570|49|49 1,0,0,0,0,0,0,0,0,0,0,0,0,0,0,1,
scooby_state_1008aac|25|-25 1,0,0,0,0,0,0,0,0,0,0,0,0,0,0,1,
scooby_state_ffffffff78a4f524|22|1 1,0,0,0,0,0,0,0,0,0,0,0,0,0,0,1,
scooby_state_1321798|34|0 1,0,0,0,0,0,0,0,0,0,0,0,0,0,0,1,
scooby_state_1009e9c|11|0 1,0,0,0,0,0,0,0,0,0,0,0,0,0,0,1,
scooby_state_ffffffff788c133c|33|1 1,0,0,0,0,0,0,0,0,0,0,0,0,0,0,1,
scooby_state_ffffffff78987728|3|0 1,0,0,0,0,0,0,0,0,0,0,0,0,0,0,1,
scooby_state_12c8924|10|0 1,0,0,0,0,0,0,0,0,0,0,0,0,0,0,1,
scooby_state_12c8978|11|1 1,0,0,0,0,0,0,0,0,0,0,0,0,0,0,1,
scooby_state_ffffffff7e3be3ac|22|-33 1,0,0,0,0,0,0,0,0,0,0,0,0,0,0,1,
scooby_state_1063ec0|59|9 1,0,0,0,0,0,0,0,0,0,0,0,0,0,0,1,
scooby_state_ffffffff78a5efb4|42|5 1,0,0,0,0,0,0,0,0,0,0,0,0,0,0,1,
scooby_state_ffffffff78a4465c|12|1 1,0,0,0,0,0,0,0,0,0,0,0,0,0,0,1,
scooby_state_1051058|50|4 1,0,0,0,0,0,0,0,0,0,0,0,0,0,0,1,
scooby_state_ffffffff78b1d17c|62|1 1,0,0,0,0,0,0,0,0,0,0,0,0,0,0,1,
scooby_state_ffffffff78b3337c|15|1 1,0,0,0,0,0,0,0,0,0,0,0,0,0,0,1,
scooby_state_13226a0|15|-6 1,0,0,0,0,0,0,0,0,0,0,0,0,0,0,1,
scooby_state_1009eec|0|-9 1,0,0,0,0,0,0,0,0,0,0,0,0,0,0,1,

scooby_action_0_deg_dist 0,21904,0,0,0,0,0,0,0,0,0,0,0,0,0,0,
scooby_action_-6_deg_dist 0,1175,0,0,0,0,0,0,0,0,0,0,0,0,0,0,
scooby_action_4_deg_dist 0,9210,700,0,70,0,0,0,0,0,0,0,0,0,0,0,
scooby_action_1_deg_dist 0,810891,89036,0,121089,0,375195,0,0,0,0,0,0,0,0,0,
scooby_action_30_deg_dist 0,1072,0,0,0,0,0,0,0,0,0,0,0,0,0,0,
scooby_action_3_deg_dist 0,1632,2,0,0,0,0,0,0,0,0,0,0,0,0,0,
scooby_action_32_deg_dist 0,954,0,0,0,0,0,0,0,0,0,0,0,0,0,0,
scooby_action_5_deg_dist 0,1253,0,0,0,0,0,0,0,0,0,0,0,0,0,0,
scooby_action_10_deg_dist 0,1414,1,0,0,0,0,0,0,0,0,0,0,0,0,0,
scooby_action_11_deg_dist 0,1529,0,0,0,0,0,0,0,0,0,0,0,0,0,0,
scooby_action_23_deg_dist 0,979,0,0,0,0,0,0,0,0,0,0,0,0,0,0,
scooby_action_-1_deg_dist 0,21512,41,0,4,0,0,0,0,0,0,0,0,0,0,0,
scooby_action_12_deg_dist 0,1148,0,0,0,0,0,0,0,0,0,0,0,0,0,0,
scooby_action_22_deg_dist 0,1018,4,0,0,0,0,0,0,0,0,0,0,0,0,0,
scooby_action_-3_deg_dist 0,1286,0,0,0,0,0,0,0,0,0,0,0,0,0,0,

scooby_track_called 1463119
scooby_track_same_address 24404
scooby_track_evict 1438459

scooby_reward_demand_called 1463119
scooby_reward_demand_pt_not_found 747585
scooby_reward_demand_pt_found 715534
scooby_reward_demand_pt_found_total 715534
scooby_reward_demand_has_reward 152
scooby_reward_train_called 698249
scooby_reward_assign_reward_called 1438564
scooby_reward_no_pref 21904
scooby_reward_incorrect 676345
scooby_reward_correct_untimely 545082
scooby_reward_correct_timely 170300
scooby_reward_out_of_bounds 24933
scooby_reward_tracker_hit 0

scooby_reward_none_low_bw 21904
scooby_reward_none_high_bw 0
scooby_reward_incorrect_low_bw 676345
scooby_reward_incorrect_high_bw 0
scooby_reward_correct_untimely_low_bw 545082
scooby_reward_correct_untimely_high_bw 0
scooby_reward_correct_timely_low_bw 170300
scooby_reward_correct_timely_high_bw 0
scooby_reward_out_of_bounds_low_bw 24933
scooby_reward_out_of_bounds_high_bw 0
scooby_reward_tracker_hit_low_bw 0
scooby_reward_tracker_hit_high_bw 0

scooby_reward_1 0,659583,539851,167790,21749,0,
scooby_reward_3 0,1379,51,101,61,0,
scooby_reward_4 0,4211,4082,903,473,0,
scooby_reward_5 0,1066,18,45,90,0,
scooby_reward_10 0,935,6,50,164,0,
scooby_reward_11 0,918,5,34,216,0,
scooby_reward_12 0,845,5,45,216,0,
scooby_reward_22 0,601,4,30,385,0,
scooby_reward_23 0,579,2,23,368,0,
scooby_reward_30 0,489,0,29,478,0,
scooby_reward_32 0,446,0,28,479,0,
scooby_reward_-1 0,3248,1055,1213,106,0,
scooby_reward_-3 0,1031,2,4,51,0,
scooby_reward_-6 0,1014,1,5,97,0,
scooby_reward_0 21904,0,0,0,0,0,

scooby_train_called 1438458
scooby_train_compute_reward 698249

scooby_register_fill_called 1143210
scooby_register_fill_set 674058
scooby_register_fill_set_total 674058

scooby_register_prefetch_hit_called 1405086
scooby_register_prefetch_hit_set 686792
scooby_register_prefetch_hit_set_total 686792

scooby_pref_issue_scooby 3551879

learning_engine_featurewise.action.called 1463119
learning_engine_featurewise.action.explore 2705
learning_engine_featurewise.action.exploit 1460414
learning_engine_featurewise.action.fallback 273280
learning_engine_featurewise.action.dyn_fallback_saved_bw 0
learning_engine_featurewise.action.dyn_fallback_saved_bw_acc 7367
learning_engine_featurewise.action.index_1_explored 170
learning_engine_featurewise.action.index_1_exploited 1396041
learning_engine_featurewise.action.index_3_explored 198
learning_engine_featurewise.action.index_3_exploited 1436
learning_engine_featurewise.action.index_4_explored 186
learning_engine_featurewise.action.index_4_exploited 9794
learning_engine_featurewise.action.index_5_explored 174
learning_engine_featurewise.action.index_5_exploited 1079
learning_engine_featurewise.action.index_10_explored 205
learning_engine_featurewise.action.index_10_exploited 1210
learning_engine_featurewise.action.index_11_explored 163
learning_engine_featurewise.action.index_11_exploited 1366
learning_engine_featurewise.action.index_12_explored 188
learning_engine_featurewise.action.index_12_exploited 960
learning_engine_featurewise.action.index_22_explored 188
learning_engine_featurewise.action.index_22_exploited 834
learning_engine_featurewise.action.index_23_explored 181
learning_engine_featurewise.action.index_23_exploited 798
learning_engine_featurewise.action.index_30_explored 188
learning_engine_featurewise.action.index_30_exploited 884
learning_engine_featurewise.action.index_32_explored 155
learning_engine_featurewise.action.index_32_exploited 799
learning_engine_featurewise.action.index_-1_explored 179
learning_engine_featurewise.action.index_-1_exploited 21378
learning_engine_featurewise.action.index_-3_explored 176
learning_engine_featurewise.action.index_-3_exploited 1110
learning_engine_featurewise.action.index_-6_explored 170
learning_engine_featurewise.action.index_-6_exploited 1005
learning_engine_featurewise.action.index_0_explored 184
learning_engine_featurewise.action.index_0_exploited 21720
learning_engine_featurewise.learn.called 1438458
learning_engine_featurewise.learn.su_skip_PC 0
learning_engine_featurewise.learn.su_skip_PC_Delta 0

learning_engine_featurewise.q_value_histogram.bucket_0 0
learning_engine_featurewise.q_value_histogram.bucket_1 380
learning_engine_featurewise.q_value_histogram.bucket_2 330216
learning_engine_featurewise.q_value_histogram.bucket_3 40504
learning_engine_featurewise.q_value_histogram.bucket_4 66083
learning_engine_featurewise.q_value_histogram.bucket_5 506152
learning_engine_featurewise.q_value_histogram.bucket_6 517079
learning_engine_featurewise.q_value_histogram.bucket_7 0

learning_engine_featurewise.consensus.total 1460414
learning_engine_featurewise.consensus.feature_align_PC 1395376
learning_engine_featurewise.consensus.feature_align_PC_ratio 0.96
learning_engine_featurewise.consensus.feature_align_PC_Delta 1425360
learning_engine_featurewise.consensus.feature_align_PC_Delta_ratio 0.98
learning_engine_featurewise.consensus.feature_align_all 1360692
learning_engine_featurewise.consensus.feature_align_all_ratio 0.93

learning_engine_featurewise.feature_PC_min_weight 1000000.00000000
learning_engine_featurewise.feature_PC_max_weight 0.00000000
learning_engine_featurewise.feature_PC_Delta_min_weight 1000000.00000000
learning_engine_featurewise.feature_PC_Delta_max_weight 0.00000000
unique_pcs 12169
unique_pages 41517
unique_trigger_pcs 4480
total_bitmaps_seen 0
unique_bitmaps_seen 0

scooby_bw_epochs 1087283
scooby_bw_level_0 1024158
scooby_bw_level_1 51177
scooby_bw_level_2 6688
scooby_bw_level_3 5260

scooby_ipc_epochs 0
scooby_ipc_level_0 0
scooby_ipc_level_1 0
scooby_ipc_level_2 0
scooby_ipc_level_3 0

scooby_cache_acc_epochs 115979
scooby_cache_acc_level_0 1232
scooby_cache_acc_level_1 5584
scooby_cache_acc_level_2 15828
scooby_cache_acc_level_3 28766
scooby_cache_acc_level_4 31445
scooby_cache_acc_level_5 14331
scooby_cache_acc_level_6 5000
scooby_cache_acc_level_7 2640
scooby_cache_acc_level_8 1882
scooby_cache_acc_level_9 9271

Channel_0_RQ_row_buffer_hit 181629
Channel_0_RQ_row_buffer_miss 678567
Channel_0_WQ_row_buffer_hit 20972
Channel_0_WQ_row_buffer_miss 162660
Channel_0_WQ_full 0
Channel_0_dbus_congested 399603

avg_congested_cycle 9

DRAM_bw_pochs 1087283
DRAM_bw_level_0 1024158
DRAM_bw_level_1 51177
DRAM_bw_level_2 6688
DRAM_bw_level_3 5260
