*************************************************
   ChampSim Multicore Out-of-Order Simulator
   Last compiled: Feb  6 2025 20:33:19
*************************************************
parsing config file: /home/wzz/Pythia/config/pythia.ini

trace_0 /home/wzz/Pythia/traces/cloud9_phase5_core2.trace.xz
adding L2C_PREFETCHER: Scooby
Initialize SHIP state
warmup_instructions 40000000
simulation_instructions 100000000
champsim_seed 1839
measure_ipc 0
measure_ipc_epoch 1000
measure_dram_bw 1
measure_dram_bw_epoch 256
measure_cache_acc 1
measure_cache_acc_epoch 1024
l1d_perfect 0
l2c_perfect 0
llc_perfect 0
l1d_semi_perfect 0
l2c_semi_perfect 0
llc_semi_perfect 0
semi_perfect_cache_page_buffer_size 64

num_cpus 1
cpu_freq 4000
dram_io_freq 2400
page_size 4096
block_size 64
max_read_per_cycle 8
max_fill_per_cycle 1
dram_channels 1
log2_dram_channels 0
dram_ranks 1
dram_banks 8
dram_rows 65536
dram_columns 128
dram_row_size 8
dram_size 4096
dram_pages 1048576

fetch_width 6
decode_width 6
exec_width 4
lq_width 2
sq_width 2
retire_width 4
scheduler_size 128
branch_mispredict_penalty 20
rob_size 256
lq_size 72
sq_size 56
num_instr_destinations_sparc 4
num_instr_destinations 2
num_instr_sources 4

itlb_set 16
itlb_way 8
itlb_rq_size 16
itlb_wq_size 16
itlb_pq_size 0
itlb_mshr_size 8
itlb_latency 1

dtlb_set 16
dtlb_way 4
dtlb_rq_size 16
dtlb_wq_size 16
dtlb_pq_size 0
dtlb_mshr_size 8
dtlb_latency 1

stlb_set 128
stlb_way 12
stlb_rq_size 32
stlb_wq_size 32
stlb_pq_size 0
stlb_mshr_size 16
stlb_latency 8

l1i_size 32
l1i_set 64
l1i_way 8
l1i_rq_size 64
l1i_wq_size 64
l1i_pq_size 8
l1i_mshr_size 8
l1i_latency 1

l1d_size 32
l1d_set 64
l1d_way 8
l1d_rq_size 64
l1d_wq_size 64
l1d_pq_size 8
l1d_mshr_size 16
l1d_latency 4

l2c_size 256
l2c_set 512
l2c_way 8
l2c_rq_size 32
l2c_wq_size 32
l2c_pq_size 32
l2c_mshr_size 32
l2c_latency 10

llc_size 2048
llc_set 2048
llc_way 16
llc_rq_size 32
llc_wq_size 32
llc_pq_size 32
llc_mshr_size 64
llc_latency 20

dram_channel_width 8
dram_wq_size 64
dram_rq_size 64
tRP 15
tRCD 15
tCAS 12.5
dram_dbus_turn_around_time 30
dram_write_high_wm 56
dram_write_low_wm 48
min_dram_writes_per_switch 16
dram_mtps 2400
dram_dbus_return_time 13

scooby_alpha 0.0065088
scooby_gamma 0.556301
scooby_epsilon 0.00182284
scooby_state_num_bits 10
scooby_max_states 1024
scooby_seed 200
scooby_policy EGreedy
scooby_learning_type SARSA
scooby_actions 1,3,4,5,10,11,12,22,23,30,32,-1,-3,-6,0,
scooby_max_actions 15
scooby_pt_size 256
scooby_st_size 64
scooby_max_pcs 5
scooby_max_offsets 5
scooby_max_deltas 5
scooby_reward_none -4
scooby_reward_incorrect -8
scooby_reward_correct_untimely 12
scooby_reward_correct_timely 20
scooby_brain_zero_init 0
scooby_enable_reward_all 0
scooby_enable_track_multiple 0
scooby_enable_reward_out_of_bounds 1
scooby_reward_out_of_bounds -12
scooby_state_type 1
scooby_state_hash_type 11
scooby_access_debug 0
scooby_print_access_debug 0
scooby_print_access_debug_pc deadbeef
scooby_print_access_debug_pc_count 0
scooby_print_trace 0
scooby_enable_state_action_stats 1
scooby_enable_reward_tracker_hit 0
scooby_reward_tracker_hit -2
scooby_enable_featurewise_engine 1
scooby_pref_degree 1
scooby_enable_dyn_degree 1
scooby_max_to_avg_q_thresholds 0.5,1,2,
scooby_dyn_degrees 1,2,4,4,
scooby_multi_deg_select_type 2
scooby_last_pref_offset_conf_thresholds 1,3,8,
scooby_dyn_degrees_type2 1,2,4,6,
scooby_action_tracker_size 2
scooby_high_bw_thresh 4
scooby_enable_hbw_reward 1
scooby_reward_hbw_correct_timely 20
scooby_reward_hbw_correct_untimely 12
scooby_reward_hbw_incorrect -14
scooby_reward_hbw_none -2
scooby_reward_hbw_out_of_bounds -12
scooby_reward_hbw_tracker_hit -2
scooby_last_pref_offset_conf_thresholds_hbw 1,3,8,
scooby_dyn_degrees_type2_hbw 1,2,4,6,

le_enable_trace 0
le_trace_interval 0
le_trace_file_name 
le_trace_state 0
le_enable_score_plot 0
le_plot_file_name 
le_plot_actions 
le_enable_action_trace 0
le_action_trace_interval 0
le_action_trace_name 
le_enable_action_plot 0

le_featurewise_active_features PC, PC_Delta
le_featurewise_num_tilings 3,3,
le_featurewise_num_tiles 128,128,
le_featurewise_hash_types 2,2,
le_featurewise_enable_tiling_offset 1,1,
le_featurewise_max_q_thresh 0.5
le_featurewise_enable_action_fallback 1
le_featurewise_feature_weights 1,1,
le_featurewise_enable_dynamic_weight 0
le_featurewise_weight_gradient 0.001
le_featurewise_disable_adjust_weight_all_features_align 1
le_featurewise_selective_update 0
le_featurewise_pooling_type 2
le_featurewise_enable_dyn_action_fallback 1
le_featurewise_bw_acc_check_level 1
le_featurewise_acc_thresh 2
le_featurewise_enable_trace 0
le_featurewise_trace_feature_type 0
le_featurewise_trace_feature 
le_featurewise_trace_interval 0
le_featurewise_trace_record_count 0
le_featurewise_trace_file_name 
le_featurewise_enable_score_plot 0
le_featurewise_plot_actions 
le_featurewise_plot_file_name 


Heartbeat CPU  0 instructions:    1000002 cycles:     427756 heartbeat IPC: 2.33779 cumulative IPC: 2.33779 (Simulation time: 0 hr 0 min 1 sec) 
Heartbeat CPU  0 instructions:    2000002 cycles:     815193 heartbeat IPC: 2.58106 cumulative IPC: 2.45341 (Simulation time: 0 hr 0 min 2 sec) 
Heartbeat CPU  0 instructions:    3000000 cycles:    1201664 heartbeat IPC: 2.58751 cumulative IPC: 2.49654 (Simulation time: 0 hr 0 min 3 sec) 
Heartbeat CPU  0 instructions:    4000000 cycles:    1588417 heartbeat IPC: 2.58563 cumulative IPC: 2.51823 (Simulation time: 0 hr 0 min 4 sec) 
Heartbeat CPU  0 instructions:    5000001 cycles:    1975443 heartbeat IPC: 2.58381 cumulative IPC: 2.53108 (Simulation time: 0 hr 0 min 5 sec) 
Heartbeat CPU  0 instructions:    6000002 cycles:    2357690 heartbeat IPC: 2.61611 cumulative IPC: 2.54486 (Simulation time: 0 hr 0 min 6 sec) 
Heartbeat CPU  0 instructions:    7000003 cycles:    2751970 heartbeat IPC: 2.53627 cumulative IPC: 2.54363 (Simulation time: 0 hr 0 min 7 sec) 
Heartbeat CPU  0 instructions:    8000000 cycles:    3140379 heartbeat IPC: 2.57460 cumulative IPC: 2.54746 (Simulation time: 0 hr 0 min 8 sec) 
Heartbeat CPU  0 instructions:    9000000 cycles:    3527773 heartbeat IPC: 2.58135 cumulative IPC: 2.55118 (Simulation time: 0 hr 0 min 9 sec) 
Heartbeat CPU  0 instructions:   10000001 cycles:    3911388 heartbeat IPC: 2.60678 cumulative IPC: 2.55664 (Simulation time: 0 hr 0 min 10 sec) 
Heartbeat CPU  0 instructions:   11000002 cycles:    4298540 heartbeat IPC: 2.58297 cumulative IPC: 2.55901 (Simulation time: 0 hr 0 min 11 sec) 
Heartbeat CPU  0 instructions:   12000000 cycles:    4684581 heartbeat IPC: 2.59039 cumulative IPC: 2.56160 (Simulation time: 0 hr 0 min 12 sec) 
Heartbeat CPU  0 instructions:   13000001 cycles:    5072435 heartbeat IPC: 2.57829 cumulative IPC: 2.56287 (Simulation time: 0 hr 0 min 13 sec) 
Heartbeat CPU  0 instructions:   14000002 cycles:    5457373 heartbeat IPC: 2.59782 cumulative IPC: 2.56534 (Simulation time: 0 hr 0 min 14 sec) 
Heartbeat CPU  0 instructions:   15000002 cycles:    5840221 heartbeat IPC: 2.61200 cumulative IPC: 2.56840 (Simulation time: 0 hr 0 min 15 sec) 
Heartbeat CPU  0 instructions:   16000000 cycles:    6229165 heartbeat IPC: 2.57106 cumulative IPC: 2.56856 (Simulation time: 0 hr 0 min 16 sec) 
Heartbeat CPU  0 instructions:   17000003 cycles:    6616387 heartbeat IPC: 2.58251 cumulative IPC: 2.56938 (Simulation time: 0 hr 0 min 17 sec) 
Heartbeat CPU  0 instructions:   18000001 cycles:    7003567 heartbeat IPC: 2.58277 cumulative IPC: 2.57012 (Simulation time: 0 hr 0 min 18 sec) 
Heartbeat CPU  0 instructions:   19000003 cycles:    7388358 heartbeat IPC: 2.59882 cumulative IPC: 2.57161 (Simulation time: 0 hr 0 min 19 sec) 
Heartbeat CPU  0 instructions:   20000000 cycles:    7771259 heartbeat IPC: 2.61163 cumulative IPC: 2.57359 (Simulation time: 0 hr 0 min 20 sec) 
Heartbeat CPU  0 instructions:   21000000 cycles:    8155093 heartbeat IPC: 2.60529 cumulative IPC: 2.57508 (Simulation time: 0 hr 0 min 21 sec) 
Heartbeat CPU  0 instructions:   22000001 cycles:    8537748 heartbeat IPC: 2.61332 cumulative IPC: 2.57679 (Simulation time: 0 hr 0 min 22 sec) 
Heartbeat CPU  0 instructions:   23000003 cycles:    8949449 heartbeat IPC: 2.42895 cumulative IPC: 2.56999 (Simulation time: 0 hr 0 min 23 sec) 
Heartbeat CPU  0 instructions:   24000000 cycles:    9359481 heartbeat IPC: 2.43883 cumulative IPC: 2.56424 (Simulation time: 0 hr 0 min 24 sec) 
Heartbeat CPU  0 instructions:   25000000 cycles:    9767927 heartbeat IPC: 2.44830 cumulative IPC: 2.55940 (Simulation time: 0 hr 0 min 25 sec) 
Heartbeat CPU  0 instructions:   26000001 cycles:   10181568 heartbeat IPC: 2.41756 cumulative IPC: 2.55363 (Simulation time: 0 hr 0 min 26 sec) 
Heartbeat CPU  0 instructions:   27000002 cycles:   10857774 heartbeat IPC: 1.47884 cumulative IPC: 2.48670 (Simulation time: 0 hr 0 min 28 sec) 
Heartbeat CPU  0 instructions:   28000000 cycles:   11246071 heartbeat IPC: 2.57534 cumulative IPC: 2.48976 (Simulation time: 0 hr 0 min 29 sec) 
Heartbeat CPU  0 instructions:   29000003 cycles:   11627094 heartbeat IPC: 2.62452 cumulative IPC: 2.49417 (Simulation time: 0 hr 0 min 30 sec) 
Heartbeat CPU  0 instructions:   30000001 cycles:   12012218 heartbeat IPC: 2.59656 cumulative IPC: 2.49746 (Simulation time: 0 hr 0 min 31 sec) 
Heartbeat CPU  0 instructions:   31000000 cycles:   12393793 heartbeat IPC: 2.62071 cumulative IPC: 2.50125 (Simulation time: 0 hr 0 min 32 sec) 
Heartbeat CPU  0 instructions:   32000000 cycles:   12776456 heartbeat IPC: 2.61327 cumulative IPC: 2.50461 (Simulation time: 0 hr 0 min 33 sec) 
Heartbeat CPU  0 instructions:   33000003 cycles:   13160285 heartbeat IPC: 2.60533 cumulative IPC: 2.50754 (Simulation time: 0 hr 0 min 34 sec) 
Heartbeat CPU  0 instructions:   34000000 cycles:   13542849 heartbeat IPC: 2.61393 cumulative IPC: 2.51055 (Simulation time: 0 hr 0 min 35 sec) 
Heartbeat CPU  0 instructions:   35000002 cycles:   13928133 heartbeat IPC: 2.59549 cumulative IPC: 2.51290 (Simulation time: 0 hr 0 min 36 sec) 
Heartbeat CPU  0 instructions:   36000000 cycles:   14312402 heartbeat IPC: 2.60234 cumulative IPC: 2.51530 (Simulation time: 0 hr 0 min 37 sec) 
Heartbeat CPU  0 instructions:   37000001 cycles:   14696098 heartbeat IPC: 2.60623 cumulative IPC: 2.51768 (Simulation time: 0 hr 0 min 38 sec) 
Heartbeat CPU  0 instructions:   38000001 cycles:   15082815 heartbeat IPC: 2.58587 cumulative IPC: 2.51942 (Simulation time: 0 hr 0 min 39 sec) 
Heartbeat CPU  0 instructions:   39000000 cycles:   15464967 heartbeat IPC: 2.61676 cumulative IPC: 2.52183 (Simulation time: 0 hr 0 min 40 sec) 
Heartbeat CPU  0 instructions:   40000000 cycles:   15849115 heartbeat IPC: 2.60316 cumulative IPC: 2.52380 (Simulation time: 0 hr 0 min 41 sec) 

Warmup complete CPU  0 instructions:   40000004 cycles:   15849116 (Simulation time: 0 hr 0 min 41 sec) 

Heartbeat CPU  0 instructions:   41000001 cycles:   22913676 heartbeat IPC: 0.14155 cumulative IPC: 0.14155 (Simulation time: 0 hr 0 min 42 sec) 
Heartbeat CPU  0 instructions:   42000001 cycles:   29991209 heartbeat IPC: 0.14129 cumulative IPC: 0.14142 (Simulation time: 0 hr 0 min 44 sec) 
Heartbeat CPU  0 instructions:   43000000 cycles:   37084886 heartbeat IPC: 0.14097 cumulative IPC: 0.14127 (Simulation time: 0 hr 0 min 45 sec) 
Heartbeat CPU  0 instructions:   44000000 cycles:   44201598 heartbeat IPC: 0.14051 cumulative IPC: 0.14108 (Simulation time: 0 hr 0 min 46 sec) 
Heartbeat CPU  0 instructions:   45000002 cycles:   51255405 heartbeat IPC: 0.14177 cumulative IPC: 0.14122 (Simulation time: 0 hr 0 min 48 sec) 
Heartbeat CPU  0 instructions:   46000003 cycles:   56947691 heartbeat IPC: 0.17568 cumulative IPC: 0.14599 (Simulation time: 0 hr 0 min 50 sec) 
Heartbeat CPU  0 instructions:   47000001 cycles:   62915418 heartbeat IPC: 0.16757 cumulative IPC: 0.14873 (Simulation time: 0 hr 0 min 51 sec) 
*** Reached end of trace for Core: 0 Repeating trace: /home/wzz/Pythia/traces/cloud9_phase5_core2.trace.xz
Heartbeat CPU  0 instructions:   48000000 cycles:   69941860 heartbeat IPC: 0.14232 cumulative IPC: 0.14789 (Simulation time: 0 hr 0 min 53 sec) 
Heartbeat CPU  0 instructions:   49000002 cycles:   77048354 heartbeat IPC: 0.14072 cumulative IPC: 0.14706 (Simulation time: 0 hr 0 min 54 sec) 
Heartbeat CPU  0 instructions:   50000000 cycles:   84161295 heartbeat IPC: 0.14059 cumulative IPC: 0.14639 (Simulation time: 0 hr 0 min 56 sec) 
Heartbeat CPU  0 instructions:   51000000 cycles:   91221852 heartbeat IPC: 0.14163 cumulative IPC: 0.14594 (Simulation time: 0 hr 0 min 57 sec) 
Heartbeat CPU  0 instructions:   52000000 cycles:   98158089 heartbeat IPC: 0.14417 cumulative IPC: 0.14579 (Simulation time: 0 hr 0 min 59 sec) 
Heartbeat CPU  0 instructions:   53000003 cycles:  105222672 heartbeat IPC: 0.14155 cumulative IPC: 0.14546 (Simulation time: 0 hr 1 min 0 sec) 
Heartbeat CPU  0 instructions:   54000000 cycles:  112379309 heartbeat IPC: 0.13973 cumulative IPC: 0.14503 (Simulation time: 0 hr 1 min 1 sec) 
Heartbeat CPU  0 instructions:   55000001 cycles:  119499238 heartbeat IPC: 0.14045 cumulative IPC: 0.14472 (Simulation time: 0 hr 1 min 3 sec) 
Heartbeat CPU  0 instructions:   56000000 cycles:  126546932 heartbeat IPC: 0.14189 cumulative IPC: 0.14454 (Simulation time: 0 hr 1 min 4 sec) 
Heartbeat CPU  0 instructions:   57000001 cycles:  133571941 heartbeat IPC: 0.14235 cumulative IPC: 0.14441 (Simulation time: 0 hr 1 min 6 sec) 
Heartbeat CPU  0 instructions:   58000002 cycles:  140537742 heartbeat IPC: 0.14356 cumulative IPC: 0.14436 (Simulation time: 0 hr 1 min 7 sec) 
Heartbeat CPU  0 instructions:   59000001 cycles:  147618243 heartbeat IPC: 0.14123 cumulative IPC: 0.14419 (Simulation time: 0 hr 1 min 8 sec) 
Heartbeat CPU  0 instructions:   60000000 cycles:  154658551 heartbeat IPC: 0.14204 cumulative IPC: 0.14408 (Simulation time: 0 hr 1 min 10 sec) 
Heartbeat CPU  0 instructions:   61000003 cycles:  161754130 heartbeat IPC: 0.14093 cumulative IPC: 0.14393 (Simulation time: 0 hr 1 min 11 sec) 
Heartbeat CPU  0 instructions:   62000002 cycles:  168812523 heartbeat IPC: 0.14168 cumulative IPC: 0.14383 (Simulation time: 0 hr 1 min 13 sec) 
Heartbeat CPU  0 instructions:   63000002 cycles:  175944655 heartbeat IPC: 0.14021 cumulative IPC: 0.14366 (Simulation time: 0 hr 1 min 14 sec) 
Heartbeat CPU  0 instructions:   64000000 cycles:  183047243 heartbeat IPC: 0.14079 cumulative IPC: 0.14354 (Simulation time: 0 hr 1 min 16 sec) 
Heartbeat CPU  0 instructions:   65000003 cycles:  190053945 heartbeat IPC: 0.14272 cumulative IPC: 0.14351 (Simulation time: 0 hr 1 min 17 sec) 
Heartbeat CPU  0 instructions:   66000002 cycles:  197196409 heartbeat IPC: 0.14001 cumulative IPC: 0.14337 (Simulation time: 0 hr 1 min 18 sec) 
Heartbeat CPU  0 instructions:   67000000 cycles:  204238559 heartbeat IPC: 0.14200 cumulative IPC: 0.14332 (Simulation time: 0 hr 1 min 20 sec) 
Heartbeat CPU  0 instructions:   68000000 cycles:  211430754 heartbeat IPC: 0.13904 cumulative IPC: 0.14316 (Simulation time: 0 hr 1 min 21 sec) 
Heartbeat CPU  0 instructions:   69000000 cycles:  218485279 heartbeat IPC: 0.14175 cumulative IPC: 0.14311 (Simulation time: 0 hr 1 min 23 sec) 
Heartbeat CPU  0 instructions:   70000002 cycles:  224839105 heartbeat IPC: 0.15739 cumulative IPC: 0.14355 (Simulation time: 0 hr 1 min 25 sec) 
Heartbeat CPU  0 instructions:   71000002 cycles:  230354118 heartbeat IPC: 0.18132 cumulative IPC: 0.14452 (Simulation time: 0 hr 1 min 27 sec) 
Heartbeat CPU  0 instructions:   72000000 cycles:  235566201 heartbeat IPC: 0.19186 cumulative IPC: 0.14564 (Simulation time: 0 hr 1 min 29 sec) 
Heartbeat CPU  0 instructions:   73000001 cycles:  241718016 heartbeat IPC: 0.16255 cumulative IPC: 0.14610 (Simulation time: 0 hr 1 min 31 sec) 
Heartbeat CPU  0 instructions:   74000002 cycles:  249985552 heartbeat IPC: 0.12096 cumulative IPC: 0.14521 (Simulation time: 0 hr 1 min 33 sec) 
Heartbeat CPU  0 instructions:   75000000 cycles:  257144685 heartbeat IPC: 0.13968 cumulative IPC: 0.14505 (Simulation time: 0 hr 1 min 34 sec) 
Heartbeat CPU  0 instructions:   76000000 cycles:  264014809 heartbeat IPC: 0.14556 cumulative IPC: 0.14506 (Simulation time: 0 hr 1 min 36 sec) 
Heartbeat CPU  0 instructions:   77000000 cycles:  271052330 heartbeat IPC: 0.14210 cumulative IPC: 0.14498 (Simulation time: 0 hr 1 min 37 sec) 
Heartbeat CPU  0 instructions:   78000001 cycles:  278157784 heartbeat IPC: 0.14074 cumulative IPC: 0.14487 (Simulation time: 0 hr 1 min 39 sec) 
Heartbeat CPU  0 instructions:   79000000 cycles:  285210658 heartbeat IPC: 0.14179 cumulative IPC: 0.14479 (Simulation time: 0 hr 1 min 40 sec) 
Heartbeat CPU  0 instructions:   80000000 cycles:  292261132 heartbeat IPC: 0.14183 cumulative IPC: 0.14471 (Simulation time: 0 hr 1 min 42 sec) 
Heartbeat CPU  0 instructions:   81000000 cycles:  299380465 heartbeat IPC: 0.14046 cumulative IPC: 0.14460 (Simulation time: 0 hr 1 min 43 sec) 
Heartbeat CPU  0 instructions:   82000002 cycles:  306462664 heartbeat IPC: 0.14120 cumulative IPC: 0.14452 (Simulation time: 0 hr 1 min 45 sec) 
Heartbeat CPU  0 instructions:   83000001 cycles:  313504747 heartbeat IPC: 0.14200 cumulative IPC: 0.14446 (Simulation time: 0 hr 1 min 46 sec) 
Heartbeat CPU  0 instructions:   84000000 cycles:  320677694 heartbeat IPC: 0.13941 cumulative IPC: 0.14434 (Simulation time: 0 hr 1 min 48 sec) 
Heartbeat CPU  0 instructions:   85000003 cycles:  327745833 heartbeat IPC: 0.14148 cumulative IPC: 0.14428 (Simulation time: 0 hr 1 min 49 sec) 
Heartbeat CPU  0 instructions:   86000001 cycles:  334832453 heartbeat IPC: 0.14111 cumulative IPC: 0.14421 (Simulation time: 0 hr 1 min 50 sec) 
Heartbeat CPU  0 instructions:   87000000 cycles:  341905499 heartbeat IPC: 0.14138 cumulative IPC: 0.14415 (Simulation time: 0 hr 1 min 52 sec) 
Heartbeat CPU  0 instructions:   88000000 cycles:  348987865 heartbeat IPC: 0.14120 cumulative IPC: 0.14408 (Simulation time: 0 hr 1 min 53 sec) 
Heartbeat CPU  0 instructions:   89000000 cycles:  356028248 heartbeat IPC: 0.14204 cumulative IPC: 0.14404 (Simulation time: 0 hr 1 min 54 sec) 
Heartbeat CPU  0 instructions:   90000000 cycles:  363124815 heartbeat IPC: 0.14091 cumulative IPC: 0.14398 (Simulation time: 0 hr 1 min 56 sec) 
Heartbeat CPU  0 instructions:   91000000 cycles:  370200718 heartbeat IPC: 0.14132 cumulative IPC: 0.14392 (Simulation time: 0 hr 1 min 57 sec) 
Heartbeat CPU  0 instructions:   92000000 cycles:  377323693 heartbeat IPC: 0.14039 cumulative IPC: 0.14386 (Simulation time: 0 hr 1 min 59 sec) 
Heartbeat CPU  0 instructions:   93000000 cycles:  383075928 heartbeat IPC: 0.17385 cumulative IPC: 0.14432 (Simulation time: 0 hr 2 min 0 sec) 
Heartbeat CPU  0 instructions:   94000003 cycles:  389020725 heartbeat IPC: 0.16821 cumulative IPC: 0.14471 (Simulation time: 0 hr 2 min 2 sec) 
*** Reached end of trace for Core: 0 Repeating trace: /home/wzz/Pythia/traces/cloud9_phase5_core2.trace.xz
Heartbeat CPU  0 instructions:   95000003 cycles:  395876620 heartbeat IPC: 0.14586 cumulative IPC: 0.14473 (Simulation time: 0 hr 2 min 3 sec) 
Heartbeat CPU  0 instructions:   96000000 cycles:  402970238 heartbeat IPC: 0.14097 cumulative IPC: 0.14466 (Simulation time: 0 hr 2 min 5 sec) 
Heartbeat CPU  0 instructions:   97000001 cycles:  410055386 heartbeat IPC: 0.14114 cumulative IPC: 0.14459 (Simulation time: 0 hr 2 min 6 sec) 
Heartbeat CPU  0 instructions:   98000002 cycles:  417135105 heartbeat IPC: 0.14125 cumulative IPC: 0.14454 (Simulation time: 0 hr 2 min 7 sec) 
Heartbeat CPU  0 instructions:   99000001 cycles:  424046955 heartbeat IPC: 0.14468 cumulative IPC: 0.14454 (Simulation time: 0 hr 2 min 9 sec) 
Heartbeat CPU  0 instructions:  100000000 cycles:  431115673 heartbeat IPC: 0.14147 cumulative IPC: 0.14449 (Simulation time: 0 hr 2 min 10 sec) 
Heartbeat CPU  0 instructions:  101000001 cycles:  438275375 heartbeat IPC: 0.13967 cumulative IPC: 0.14440 (Simulation time: 0 hr 2 min 11 sec) 
Heartbeat CPU  0 instructions:  102000000 cycles:  445379395 heartbeat IPC: 0.14077 cumulative IPC: 0.14434 (Simulation time: 0 hr 2 min 13 sec) 
Heartbeat CPU  0 instructions:  103000000 cycles:  452426039 heartbeat IPC: 0.14191 cumulative IPC: 0.14430 (Simulation time: 0 hr 2 min 14 sec) 
Heartbeat CPU  0 instructions:  104000000 cycles:  459487558 heartbeat IPC: 0.14161 cumulative IPC: 0.14426 (Simulation time: 0 hr 2 min 16 sec) 
Heartbeat CPU  0 instructions:  105000000 cycles:  466464471 heartbeat IPC: 0.14333 cumulative IPC: 0.14425 (Simulation time: 0 hr 2 min 17 sec) 
Heartbeat CPU  0 instructions:  106000001 cycles:  473488701 heartbeat IPC: 0.14236 cumulative IPC: 0.14422 (Simulation time: 0 hr 2 min 18 sec) 
Heartbeat CPU  0 instructions:  107000002 cycles:  480538638 heartbeat IPC: 0.14185 cumulative IPC: 0.14418 (Simulation time: 0 hr 2 min 20 sec) 
Heartbeat CPU  0 instructions:  108000000 cycles:  487656046 heartbeat IPC: 0.14050 cumulative IPC: 0.14413 (Simulation time: 0 hr 2 min 21 sec) 
Heartbeat CPU  0 instructions:  109000001 cycles:  494709588 heartbeat IPC: 0.14177 cumulative IPC: 0.14409 (Simulation time: 0 hr 2 min 22 sec) 
Heartbeat CPU  0 instructions:  110000003 cycles:  501843444 heartbeat IPC: 0.14018 cumulative IPC: 0.14403 (Simulation time: 0 hr 2 min 24 sec) 
Heartbeat CPU  0 instructions:  111000000 cycles:  508922306 heartbeat IPC: 0.14127 cumulative IPC: 0.14399 (Simulation time: 0 hr 2 min 25 sec) 
Heartbeat CPU  0 instructions:  112000000 cycles:  515934773 heartbeat IPC: 0.14260 cumulative IPC: 0.14398 (Simulation time: 0 hr 2 min 27 sec) 
Heartbeat CPU  0 instructions:  113000001 cycles:  523084707 heartbeat IPC: 0.13986 cumulative IPC: 0.14392 (Simulation time: 0 hr 2 min 28 sec) 
Heartbeat CPU  0 instructions:  114000001 cycles:  530109172 heartbeat IPC: 0.14236 cumulative IPC: 0.14390 (Simulation time: 0 hr 2 min 29 sec) 
Heartbeat CPU  0 instructions:  115000001 cycles:  537276598 heartbeat IPC: 0.13952 cumulative IPC: 0.14384 (Simulation time: 0 hr 2 min 31 sec) 
Heartbeat CPU  0 instructions:  116000000 cycles:  544366694 heartbeat IPC: 0.14104 cumulative IPC: 0.14380 (Simulation time: 0 hr 2 min 32 sec) 
Heartbeat CPU  0 instructions:  117000000 cycles:  550964576 heartbeat IPC: 0.15156 cumulative IPC: 0.14389 (Simulation time: 0 hr 2 min 34 sec) 
Heartbeat CPU  0 instructions:  118000003 cycles:  556363335 heartbeat IPC: 0.18523 cumulative IPC: 0.14431 (Simulation time: 0 hr 2 min 36 sec) 
Heartbeat CPU  0 instructions:  119000000 cycles:  561659688 heartbeat IPC: 0.18881 cumulative IPC: 0.14474 (Simulation time: 0 hr 2 min 38 sec) 
Heartbeat CPU  0 instructions:  120000000 cycles:  567750602 heartbeat IPC: 0.16418 cumulative IPC: 0.14495 (Simulation time: 0 hr 2 min 40 sec) 
Heartbeat CPU  0 instructions:  121000003 cycles:  575774667 heartbeat IPC: 0.12463 cumulative IPC: 0.14466 (Simulation time: 0 hr 2 min 42 sec) 
Heartbeat CPU  0 instructions:  122000002 cycles:  582901900 heartbeat IPC: 0.14031 cumulative IPC: 0.14461 (Simulation time: 0 hr 2 min 43 sec) 
Heartbeat CPU  0 instructions:  123000000 cycles:  589807708 heartbeat IPC: 0.14481 cumulative IPC: 0.14461 (Simulation time: 0 hr 2 min 45 sec) 
Heartbeat CPU  0 instructions:  124000000 cycles:  596846687 heartbeat IPC: 0.14207 cumulative IPC: 0.14458 (Simulation time: 0 hr 2 min 46 sec) 
Heartbeat CPU  0 instructions:  125000003 cycles:  603937894 heartbeat IPC: 0.14102 cumulative IPC: 0.14454 (Simulation time: 0 hr 2 min 48 sec) 
Heartbeat CPU  0 instructions:  126000001 cycles:  610991290 heartbeat IPC: 0.14178 cumulative IPC: 0.14450 (Simulation time: 0 hr 2 min 49 sec) 
Heartbeat CPU  0 instructions:  127000000 cycles:  618048605 heartbeat IPC: 0.14170 cumulative IPC: 0.14447 (Simulation time: 0 hr 2 min 50 sec) 
Heartbeat CPU  0 instructions:  128000000 cycles:  625169393 heartbeat IPC: 0.14043 cumulative IPC: 0.14442 (Simulation time: 0 hr 2 min 52 sec) 
Heartbeat CPU  0 instructions:  129000000 cycles:  632253439 heartbeat IPC: 0.14116 cumulative IPC: 0.14439 (Simulation time: 0 hr 2 min 53 sec) 
Heartbeat CPU  0 instructions:  130000000 cycles:  639293390 heartbeat IPC: 0.14205 cumulative IPC: 0.14436 (Simulation time: 0 hr 2 min 54 sec) 
Heartbeat CPU  0 instructions:  131000000 cycles:  646446879 heartbeat IPC: 0.13979 cumulative IPC: 0.14431 (Simulation time: 0 hr 2 min 56 sec) 
Heartbeat CPU  0 instructions:  132000000 cycles:  653534660 heartbeat IPC: 0.14109 cumulative IPC: 0.14427 (Simulation time: 0 hr 2 min 57 sec) 
Heartbeat CPU  0 instructions:  133000001 cycles:  660605350 heartbeat IPC: 0.14143 cumulative IPC: 0.14424 (Simulation time: 0 hr 2 min 59 sec) 
Heartbeat CPU  0 instructions:  134000000 cycles:  667709243 heartbeat IPC: 0.14077 cumulative IPC: 0.14420 (Simulation time: 0 hr 3 min 0 sec) 
Heartbeat CPU  0 instructions:  135000003 cycles:  674775364 heartbeat IPC: 0.14152 cumulative IPC: 0.14417 (Simulation time: 0 hr 3 min 1 sec) 
Heartbeat CPU  0 instructions:  136000000 cycles:  681804684 heartbeat IPC: 0.14226 cumulative IPC: 0.14415 (Simulation time: 0 hr 3 min 3 sec) 
Heartbeat CPU  0 instructions:  137000001 cycles:  688907519 heartbeat IPC: 0.14079 cumulative IPC: 0.14412 (Simulation time: 0 hr 3 min 4 sec) 
Heartbeat CPU  0 instructions:  138000002 cycles:  696001639 heartbeat IPC: 0.14096 cumulative IPC: 0.14409 (Simulation time: 0 hr 3 min 5 sec) 
Heartbeat CPU  0 instructions:  139000001 cycles:  703129951 heartbeat IPC: 0.14029 cumulative IPC: 0.14405 (Simulation time: 0 hr 3 min 7 sec) 
Heartbeat CPU  0 instructions:  140000000 cycles:  708999330 heartbeat IPC: 0.17038 cumulative IPC: 0.14427 (Simulation time: 0 hr 3 min 8 sec) 
Finished CPU 0 instructions: 100000000 cycles: 693150222 cumulative IPC: 0.14427 (Simulation time: 0 hr 3 min 8 sec) 

ChampSim completed all CPUs

[ROI Statistics]
Core_0_instructions 100000000
Core_0_cycles 693150222
Core_0_IPC 0.14427

Core_0_branch_prediction_accuracy 98.96096
Core_0_branch_MPKI 2.13693
Core_0_average_ROB_occupancy_at_mispredict 175.18575

Core_0_L1D_total_access 16201174
Core_0_L1D_total_hit 15410029
Core_0_L1D_total_miss 791145
Core_0_L1D_loads 9375711
Core_0_L1D_load_hit 8672118
Core_0_L1D_load_miss 703593
Core_0_L1D_RFOs 6825463
Core_0_L1D_RFO_hit 6737911
Core_0_L1D_RFO_miss 87552
Core_0_L1D_prefetches 0
Core_0_L1D_prefetch_hit 0
Core_0_L1D_prefetch_miss 0
Core_0_L1D_writebacks 0
Core_0_L1D_writeback_hit 0
Core_0_L1D_writeback_miss 0
Core_0_L1D_prefetch_requested 0
Core_0_L1D_prefetch_dropped 0
Core_0_L1D_prefetch_issued 0
Core_0_L1D_prefetch_filled 0
Core_0_L1D_prefetch_useful 0
Core_0_L1D_prefetch_useless 0
Core_0_L1D_prefetch_late 0
Core_0_L1D_average_miss_latency 172.38091

Core_0_L1D_rq_access 13692150
Core_0_L1D_rq_forward 0
Core_0_L1D_rq_merged 4285282
Core_0_L1D_rq_to_cache 9406007
Core_0_L1D_rq_full 0

Core_0_L1D_wq_access 7199842
Core_0_L1D_wq_forward 861
Core_0_L1D_wq_merged 141438
Core_0_L1D_wq_to_cache 7058404
Core_0_L1D_wq_full 68488

Core_0_L1D_pq_access 0
Core_0_L1D_pq_forward 0
Core_0_L1D_pq_merged 0
Core_0_L1D_pq_to_cache 0
Core_0_L1D_pq_full 0

Core_0_L1D_acc_epochs 134742
Core_0_L1D_acc_level_0 134742
Core_0_L1D_acc_level_1 0
Core_0_L1D_acc_level_2 0
Core_0_L1D_acc_level_3 0
Core_0_L1D_acc_level_4 0
Core_0_L1D_acc_level_5 0
Core_0_L1D_acc_level_6 0
Core_0_L1D_acc_level_7 0
Core_0_L1D_acc_level_8 0
Core_0_L1D_acc_level_9 0

Core_0_L1I_total_access 24671568
Core_0_L1I_total_hit 24414022
Core_0_L1I_total_miss 257546
Core_0_L1I_loads 24671568
Core_0_L1I_load_hit 24414022
Core_0_L1I_load_miss 257546
Core_0_L1I_RFOs 0
Core_0_L1I_RFO_hit 0
Core_0_L1I_RFO_miss 0
Core_0_L1I_prefetches 0
Core_0_L1I_prefetch_hit 0
Core_0_L1I_prefetch_miss 0
Core_0_L1I_writebacks 0
Core_0_L1I_writeback_hit 0
Core_0_L1I_writeback_miss 0
Core_0_L1I_prefetch_requested 0
Core_0_L1I_prefetch_dropped 0
Core_0_L1I_prefetch_issued 0
Core_0_L1I_prefetch_filled 0
Core_0_L1I_prefetch_useful 0
Core_0_L1I_prefetch_useless 0
Core_0_L1I_prefetch_late 0
Core_0_L1I_average_miss_latency 100.62007

Core_0_L1I_rq_access 99999833
Core_0_L1I_rq_forward 0
Core_0_L1I_rq_merged 75181259
Core_0_L1I_rq_to_cache 24818574
Core_0_L1I_rq_full 0

Core_0_L1I_wq_access 0
Core_0_L1I_wq_forward 0
Core_0_L1I_wq_merged 0
Core_0_L1I_wq_to_cache 0
Core_0_L1I_wq_full 0

Core_0_L1I_pq_access 0
Core_0_L1I_pq_forward 0
Core_0_L1I_pq_merged 0
Core_0_L1I_pq_to_cache 0
Core_0_L1I_pq_full 0

Core_0_L1I_acc_epochs 134742
Core_0_L1I_acc_level_0 134742
Core_0_L1I_acc_level_1 0
Core_0_L1I_acc_level_2 0
Core_0_L1I_acc_level_3 0
Core_0_L1I_acc_level_4 0
Core_0_L1I_acc_level_5 0
Core_0_L1I_acc_level_6 0
Core_0_L1I_acc_level_7 0
Core_0_L1I_acc_level_8 0
Core_0_L1I_acc_level_9 0

Core_0_L2C_total_access 2236400
Core_0_L2C_total_hit 1186318
Core_0_L2C_total_miss 1050082
Core_0_L2C_loads 961127
Core_0_L2C_load_hit 447685
Core_0_L2C_load_miss 513442
Core_0_L2C_RFOs 87552
Core_0_L2C_RFO_hit 60457
Core_0_L2C_RFO_miss 27095
Core_0_L2C_prefetches 882842
Core_0_L2C_prefetch_hit 375663
Core_0_L2C_prefetch_miss 507179
Core_0_L2C_writebacks 304879
Core_0_L2C_writeback_hit 302513
Core_0_L2C_writeback_miss 2366
Core_0_L2C_prefetch_requested 1262318
Core_0_L2C_prefetch_dropped 0
Core_0_L2C_prefetch_issued 1262318
Core_0_L2C_prefetch_filled 751046
Core_0_L2C_prefetch_useful 172594
Core_0_L2C_prefetch_useless 577004
Core_0_L2C_prefetch_late 6024
Core_0_L2C_average_miss_latency 194.47812

Core_0_L2C_rq_access 1048691
Core_0_L2C_rq_forward 0
Core_0_L2C_rq_merged 0
Core_0_L2C_rq_to_cache 1048679
Core_0_L2C_rq_full 0

Core_0_L2C_wq_access 304879
Core_0_L2C_wq_forward 14
Core_0_L2C_wq_merged 0
Core_0_L2C_wq_to_cache 304879
Core_0_L2C_wq_full 0

Core_0_L2C_pq_access 1262318
Core_0_L2C_pq_forward 0
Core_0_L2C_pq_merged 4721
Core_0_L2C_pq_to_cache 1257595
Core_0_L2C_pq_full 0

Core_0_L2C_acc_epochs 134742
Core_0_L2C_acc_level_0 38867
Core_0_L2C_acc_level_1 34333
Core_0_L2C_acc_level_2 22609
Core_0_L2C_acc_level_3 12923
Core_0_L2C_acc_level_4 6284
Core_0_L2C_acc_level_5 8337
Core_0_L2C_acc_level_6 3712
Core_0_L2C_acc_level_7 2156
Core_0_L2C_acc_level_8 1313
Core_0_L2C_acc_level_9 4208

Core_0_LLC_total_access 1282263
Core_0_LLC_total_hit 330968
Core_0_LLC_total_miss 951295
Core_0_LLC_loads 509762
Core_0_LLC_load_hit 89816
Core_0_LLC_load_miss 419946
Core_0_LLC_RFOs 25312
Core_0_LLC_RFO_hit 5623
Core_0_LLC_RFO_miss 19689
Core_0_LLC_prefetches 512641
Core_0_LLC_prefetch_hit 97638
Core_0_LLC_prefetch_miss 415003
Core_0_LLC_writebacks 234548
Core_0_LLC_writeback_hit 137891
Core_0_LLC_writeback_miss 96657
Core_0_LLC_prefetch_requested 0
Core_0_LLC_prefetch_dropped 0
Core_0_LLC_prefetch_issued 0
Core_0_LLC_prefetch_filled 625562
Core_0_LLC_prefetch_useful 11446
Core_0_LLC_prefetch_useless 606691
Core_0_LLC_prefetch_late 0
Core_0_LLC_average_miss_latency 160.81954

Core_0_LLC_rq_access 535075
Core_0_LLC_rq_forward 0
Core_0_LLC_rq_merged 0
Core_0_LLC_rq_to_cache 535074
Core_0_LLC_rq_full 0

Core_0_LLC_wq_access 234548
Core_0_LLC_wq_forward 1
Core_0_LLC_wq_merged 0
Core_0_LLC_wq_to_cache 234548
Core_0_LLC_wq_full 0

Core_0_LLC_pq_access 757071
Core_0_LLC_pq_forward 0
Core_0_LLC_pq_merged 0
Core_0_LLC_pq_to_cache 757071
Core_0_LLC_pq_full 0

Core_0_LLC_acc_epochs 692383
Core_0_LLC_acc_level_0 679551
Core_0_LLC_acc_level_1 6615
Core_0_LLC_acc_level_2 3707
Core_0_LLC_acc_level_3 323
Core_0_LLC_acc_level_4 50
Core_0_LLC_acc_level_5 1972
Core_0_LLC_acc_level_6 51
Core_0_LLC_acc_level_7 35
Core_0_LLC_acc_level_8 4
Core_0_LLC_acc_level_9 75

Core_0_major_page_fault 0
Core_0_minor_page_fault 71899

scooby_st_lookup 1354014
scooby_st_hit 796122
scooby_st_evict 557828
scooby_st_insert 557892
scooby_st_streaming 0

scooby_predict_called 1354014
scooby_predict_out_of_bounds 46417
scooby_predict_action_1 901831
scooby_predict_issue_action_1 700560
scooby_predict_hit_action_1 201271
scooby_predict_out_of_bounds_action_1 12681
scooby_predict_action_3 21814
scooby_predict_issue_action_3 18183
scooby_predict_hit_action_3 3631
scooby_predict_out_of_bounds_action_3 754
scooby_predict_action_4 22838
scooby_predict_issue_action_4 19738
scooby_predict_hit_action_4 3100
scooby_predict_out_of_bounds_action_4 1467
scooby_predict_action_5 16400
scooby_predict_issue_action_5 12703
scooby_predict_hit_action_5 3697
scooby_predict_out_of_bounds_action_5 1305
scooby_predict_action_10 16140
scooby_predict_issue_action_10 13657
scooby_predict_hit_action_10 2483
scooby_predict_out_of_bounds_action_10 2797
scooby_predict_action_11 10769
scooby_predict_issue_action_11 8186
scooby_predict_hit_action_11 2583
scooby_predict_out_of_bounds_action_11 2053
scooby_predict_action_12 10662
scooby_predict_issue_action_12 8375
scooby_predict_hit_action_12 2287
scooby_predict_out_of_bounds_action_12 2372
scooby_predict_action_22 10364
scooby_predict_issue_action_22 7770
scooby_predict_hit_action_22 2594
scooby_predict_out_of_bounds_action_22 4747
scooby_predict_action_23 12145
scooby_predict_issue_action_23 6603
scooby_predict_hit_action_23 5542
scooby_predict_out_of_bounds_action_23 3675
scooby_predict_action_30 5027
scooby_predict_issue_action_30 3932
scooby_predict_hit_action_30 1095
scooby_predict_out_of_bounds_action_30 4391
scooby_predict_action_32 5430
scooby_predict_issue_action_32 4285
scooby_predict_hit_action_32 1145
scooby_predict_out_of_bounds_action_32 4993
scooby_predict_action_-1 120444
scooby_predict_issue_action_-1 50054
scooby_predict_hit_action_-1 70390
scooby_predict_out_of_bounds_action_-1 687
scooby_predict_action_-3 48574
scooby_predict_issue_action_-3 43586
scooby_predict_hit_action_-3 4988
scooby_predict_out_of_bounds_action_-3 2230
scooby_predict_action_-6 25857
scooby_predict_issue_action_-6 22899
scooby_predict_hit_action_-6 2958
scooby_predict_out_of_bounds_action_-6 2265
scooby_predict_action_0 79302
scooby_predict_issue_action_0 0
scooby_predict_hit_action_0 0
scooby_predict_out_of_bounds_action_0 0
scooby_predict_multi_deg_called 128933
scooby_predict_predicted 1262318
scooby_predict_multi_deg 341787
scooby_predict_multi_deg_2 124183
scooby_predict_multi_deg_3 75659
scooby_predict_multi_deg_4 72859
scooby_predict_multi_deg_5 35178
scooby_predict_multi_deg_6 33908
scooby_predict_multi_deg_7 0
scooby_predict_multi_deg_8 0
scooby_predict_multi_deg_9 0
scooby_predict_multi_deg_10 0
scooby_predict_multi_deg_11 0
scooby_predict_multi_deg_12 0
scooby_predict_multi_deg_13 0
scooby_predict_multi_deg_14 0
scooby_predict_multi_deg_15 0
scooby_predict_multi_deg_16 0

scooby_selected_deg_1 791598
scooby_selected_deg_2 46424
scooby_selected_deg_3 0
scooby_selected_deg_4 39995
scooby_selected_deg_5 0
scooby_selected_deg_6 42514
scooby_selected_deg_7 0
scooby_selected_deg_8 0
scooby_selected_deg_9 0
scooby_selected_deg_10 0
scooby_selected_deg_11 0
scooby_selected_deg_12 0
scooby_selected_deg_13 0
scooby_selected_deg_14 0
scooby_selected_deg_15 0
scooby_selected_deg_16 0

scooby_state_10013c8c0|35|0 6666,80,112,97,82,100,91,92,129,14,14,469,129,128,32,8235,
scooby_state_ffffffff7e03b8c0|35|0 7261,97,76,84,106,103,82,56,78,15,18,56,82,75,37,8226,
scooby_state_ffffffff7e8e7ce0|51|0 6753,102,141,149,131,179,151,25,22,20,18,182,138,157,58,8226,
scooby_state_100266040|1|0 7120,50,53,224,25,46,48,56,41,40,65,396,18,16,25,8223,
scooby_state_10008c044|1|0 6151,122,146,138,157,149,161,100,148,138,129,573,22,23,54,8211,
scooby_state_ffffffff7e0c6040|1|0 6051,142,160,156,173,170,120,206,186,180,189,365,24,22,61,8205,
scooby_state_ffffffff7e7df040|1|0 5885,221,219,178,187,187,210,213,202,238,208,137,23,25,69,8202,
scooby_state_100090060|1|0 7019,103,92,187,69,98,108,76,90,98,103,71,22,14,31,8181,
scooby_state_10014506c|1|0 6851,93,111,119,103,106,115,98,62,93,109,86,11,21,44,8022,
scooby_state_ffffffff7e7a9d00|52|1 16,2,2,7,6,6,5,6,7,7,6,7945,1,0,0,8016,
scooby_state_ffffffff7e7c3d00|52|1 35,9,2,8,9,9,6,25,6,12,6,7846,5,6,8,7992,
scooby_state_ffffffff7e7c305c|1|-51 6563,93,107,105,77,110,86,103,22,69,95,479,22,17,38,7986,
scooby_state_100115d00|52|1 2,9,8,6,8,7,6,7,5,6,6,7902,2,2,1,7977,
scooby_state_ffffffff7e23ed20|52|0 7083,83,91,115,87,108,19,13,14,19,18,57,99,101,34,7941,
scooby_state_ffffffff7e7b7cc0|51|0 5926,105,106,123,93,130,111,16,31,18,21,70,191,125,50,7116,
scooby_state_ffffffff7e7c3cc4|51|50 7055,2,0,1,3,1,0,0,0,1,0,3,0,1,0,7067,
scooby_state_10008a040|1|0 5823,67,77,66,78,80,80,79,195,53,68,78,20,17,28,6809,
scooby_state_ffffffff7ee00cc0|51|0 7,12,24,16,16,14,11,8,7,7,7,6551,14,13,4,6711,
scooby_state_ffffffff7e8e8d00|52|1 41,4,2,6,0,6,6,3,5,0,0,5870,2,1,0,5946,
scooby_state_ffffffff7e784d00|52|1 4,4,4,3,5,3,3,3,4,3,4,5779,1,0,0,5820,
scooby_state_100115cc0|51|-1 2535,0,0,7,12,5,7,4,6,3,4,3184,6,3,7,5783,
scooby_state_ffffffff7e8e8ce0|51|-1 5091,0,0,2,0,0,1,0,2,1,1,0,2,0,0,5100,
scooby_state_ffffffff7e786908|36|-1 4933,1,1,2,26,1,0,1,1,0,1,0,1,0,0,4968,
scooby_state_ffffffff7e4008c0|35|-1 4922,0,0,34,1,1,3,3,0,0,0,2,0,1,1,4968,
scooby_state_100265900|36|1 6,1,3,8,2,3,3,6,2,1,5,4925,0,0,3,4968,
scooby_state_100149900|36|1 891,16,3,21,45,20,53,22,33,10,9,3700,87,47,11,4968,
scooby_state_ffffffff7e400900|36|-1 4563,51,32,29,34,42,36,36,39,7,8,0,21,55,15,4968,
scooby_state_ffffffff7e786948|37|2 108,38,66,48,24,61,71,60,21,15,14,4332,42,37,31,4968,
scooby_state_100149950|37|1 431,0,0,1,1,1,1,1,0,5,0,4511,2,1,1,4956,
scooby_state_ffffffff7e8eb920|36|0 3144,141,190,162,161,158,153,161,150,27,28,110,169,139,63,4956,
scooby_state_ffffffff7e788940|37|2 3107,123,164,302,112,163,135,179,154,27,20,116,151,139,49,4941,
scooby_state_10014a940|37|1 10,6,4,1,3,0,5,5,4892,0,0,0,0,0,0,4926,
scooby_state_10014a900|36|1 4913,3,0,0,0,0,0,1,2,0,0,0,0,2,2,4923,
scooby_state_ffffffff7e400940|37|2 7,2,0,5,7,3,4,5,3,4,6,4781,0,0,0,4827,
scooby_state_ffffffff7e7a9cc0|51|-1 4763,0,0,0,0,0,0,1,0,0,0,1,0,0,1,4766,
scooby_state_ffffffff7e7868c0|35|0 4551,0,1,0,1,0,2,0,0,0,0,0,1,2,0,4558,
scooby_state_10013e978|37|0 3512,67,68,81,55,56,64,73,11,13,18,71,53,56,31,4229,
scooby_state_ffffffff7e784cf0|51|-1 4114,0,1,1,1,2,0,2,1,0,1,1,0,0,1,4125,
scooby_state_1002658e0|35|0 3539,6,1,1,1,7,6,509,3,5,3,6,19,1,3,4110,
scooby_state_ffffffff7e7888e4|35|0 3078,74,91,75,68,63,64,75,34,18,17,220,106,85,36,4104,
scooby_state_ffffffff7e7bccc0|51|0 3964,0,1,0,1,0,0,1,1,0,1,0,0,0,0,3969,
scooby_state_1001498c0|35|-2 3901,1,1,2,0,1,0,0,0,1,0,0,0,1,0,3908,
scooby_state_ffffffff7e7bcd0c|52|1 11,3,3,2,3,2,3,3,4,1,5,3822,2,7,2,3873,
scooby_state_10014a8d4|35|34 3828,1,1,1,1,0,0,0,2,0,0,0,0,0,0,3834,
scooby_state_ffffffff7e7868c0|35|-1 3667,2,3,0,2,1,0,2,1,0,1,0,1,0,0,3680,
scooby_state_1002658e0|35|-1 2915,30,21,25,43,28,33,367,30,8,7,1,0,17,17,3542,
scooby_state_ffffffff7e7888e4|35|-2 2707,83,53,37,33,48,57,55,100,11,11,5,22,37,27,3286,
scooby_state_ffffffff7e4008c0|35|0 3024,1,1,25,0,0,0,2,0,0,0,216,0,0,1,3270,
scooby_state_ffffffff7e784cf0|51|0 3245,0,0,0,0,2,0,0,0,1,0,0,1,1,1,3251,
scooby_state_10014a040|1|-36 2618,51,49,60,38,51,46,51,46,41,58,11,14,18,37,3189,
scooby_state_ffffffff7e8e8ce0|51|0 3122,0,1,0,0,0,1,1,0,0,0,0,1,0,0,3126,
scooby_state_1008e80|19|0 2857,36,18,10,8,9,11,7,6,6,7,7,7,6,8,3003,
scooby_state_ffffffff7e7bccc0|51|-1 2778,0,1,1,0,0,0,0,0,0,0,1,0,0,0,2781,
scooby_state_1001498c0|35|0 2711,0,0,1,0,1,0,0,1,0,0,1,1,0,0,2716,
scooby_state_1000d00|52|0 1881,61,70,64,70,64,19,21,20,21,19,242,60,47,39,2698,
scooby_state_100135040|1|0 2030,29,43,28,31,33,33,15,27,28,24,282,11,10,22,2646,
scooby_state_1008e80|24|0 2506,22,16,7,4,6,5,6,10,3,3,6,7,8,18,2627,
scooby_state_1008e80|14|0 2452,29,15,13,5,8,4,9,8,4,5,3,3,7,17,2582,
scooby_state_10014a040|1|0 2139,45,28,39,35,19,39,44,23,34,37,31,12,13,33,2571,
scooby_state_1008e80|58|0 2194,17,12,1,7,6,5,1,3,3,4,6,1,6,13,2279,
scooby_state_ffffffff7ee00a54|0|0 1448,4,6,3,4,4,4,5,1,2,5,5,4,3,701,2199,
scooby_state_1008e80|9|0 2052,26,10,6,2,4,9,4,6,3,2,4,2,4,19,2153,
scooby_state_ffffffff7ee00a54|2|0 1402,2,2,2,4,1,5,3,2,6,3,2,2,5,698,2139,
scooby_state_ffffffff7ee00a54|58|0 1332,1,3,6,1,6,2,3,1,2,6,5,3,0,739,2110,
scooby_state_ffffffff7ee00a54|1|0 1366,5,4,6,2,0,4,4,1,4,3,5,4,9,692,2109,
scooby_state_ffffffff7ee00a58|0|0 1341,12,2,8,8,4,11,3,6,4,5,4,6,5,658,2077,
scooby_state_ffffffff7ee00a54|20|0 1367,4,6,4,1,2,3,4,3,4,1,4,4,5,664,2076,
scooby_state_ffffffff7ee00a58|2|0 1352,6,6,11,6,5,4,7,4,5,4,7,8,3,648,2076,
scooby_state_ffffffff7ee00a54|30|0 1357,6,5,1,3,4,3,3,4,1,3,5,2,4,666,2067,
scooby_state_1008e80|29|0 1976,19,12,8,5,5,3,4,0,3,5,2,3,4,8,2057,
scooby_state_ffffffff7ee00a54|36|0 1357,1,5,2,1,3,5,5,4,4,2,3,2,3,658,2055,
scooby_state_ffffffff7ee00a54|18|0 1380,2,4,3,4,6,3,5,2,2,5,5,2,4,623,2050,
scooby_state_ffffffff7ee00a54|37|0 1317,6,2,2,8,3,2,2,4,5,4,1,5,2,670,2033,
scooby_state_ffffffff7ee00a54|9|0 1312,3,7,6,2,3,3,5,1,1,5,7,5,4,668,2032,
scooby_state_ffffffff7ee00a54|4|0 1330,5,2,2,2,7,3,2,1,3,3,4,0,0,656,2020,
scooby_state_ffffffff7ee00a54|16|0 1307,2,8,3,2,1,2,4,3,3,3,3,1,1,671,2014,
scooby_state_ffffffff7ee00a54|12|0 1321,4,5,2,2,4,8,6,5,3,1,5,3,6,635,2010,
scooby_state_ffffffff7ee00a54|50|0 1275,8,3,4,3,2,3,2,4,2,10,3,5,3,680,2007,
scooby_state_ffffffff7ee00a54|40|0 1323,0,5,4,6,4,5,2,3,2,2,2,8,5,636,2007,
scooby_state_ffffffff7ee00a54|25|0 1339,5,3,6,2,3,4,4,2,2,3,6,3,3,616,2001,
scooby_state_ffffffff7ee00a58|1|0 1228,7,4,9,7,6,12,7,5,7,9,10,7,7,675,2000,
scooby_state_ffffffff7ee00a54|6|0 1267,7,4,3,1,2,5,2,4,6,4,4,4,5,672,1990,
scooby_state_ffffffff7ee00a54|32|0 1337,5,3,5,4,2,1,2,3,4,3,7,4,3,602,1985,
scooby_state_ffffffff7ee00a54|8|0 1283,1,6,6,4,5,6,0,5,1,4,2,3,4,653,1983,
scooby_state_ffffffff7ee00a54|61|0 1265,2,3,3,4,4,4,9,3,6,6,1,7,2,661,1980,
scooby_state_ffffffff7ee00a58|4|0 1246,5,8,8,8,8,7,3,2,3,6,7,6,6,657,1980,
scooby_state_ffffffff7ee00a54|41|0 1315,3,5,7,2,3,3,4,2,2,5,4,5,3,614,1977,
scooby_state_ffffffff7ee00a54|53|0 1269,4,6,6,3,3,7,3,6,3,2,3,3,2,654,1974,
scooby_state_ffffffff7ee00a58|6|0 1251,5,9,8,5,6,12,2,3,5,5,6,5,4,642,1968,
scooby_state_ffffffff7ee00a54|29|0 1335,2,5,3,2,3,5,2,3,2,1,7,2,3,591,1966,
scooby_state_ffffffff7ee00a54|52|0 1275,3,4,3,6,1,5,2,1,3,5,5,3,5,642,1963,
scooby_state_ffffffff7ee00a54|38|0 1277,4,5,4,1,3,6,0,1,2,2,5,4,3,645,1962,
scooby_state_ffffffff7ee00a54|60|0 1246,3,4,2,6,4,7,5,4,6,2,7,4,1,661,1962,
scooby_state_ffffffff7ee00a54|62|0 1239,6,3,7,7,2,8,2,2,2,2,4,2,10,664,1960,
scooby_state_ffffffff7ee00a54|49|0 1288,4,6,4,3,3,3,1,3,4,3,5,2,4,626,1959,
scooby_state_ffffffff7ee00a54|34|0 1253,6,5,2,1,5,3,7,3,3,5,5,1,4,655,1958,
scooby_state_ffffffff7ee00a54|13|0 1289,1,3,5,3,4,2,10,5,4,2,4,5,1,619,1957,
scooby_state_ffffffff7ee00a54|22|0 1291,2,6,0,2,2,1,1,7,3,2,4,2,2,627,1952,
scooby_state_ffffffff7ee00a54|56|0 1231,3,2,4,4,5,5,4,1,3,3,6,4,4,672,1951,
scooby_state_ffffffff7ee00a54|28|0 1288,6,6,2,6,2,2,5,2,3,2,2,4,2,616,1948,
scooby_state_ffffffff7ee00a54|44|0 1299,6,4,2,4,5,2,3,3,4,2,3,5,4,602,1948,
scooby_state_ffffffff7ee00a54|5|0 1271,3,7,4,3,4,0,2,2,2,4,4,7,2,632,1947,
scooby_state_ffffffff7ee00a54|14|0 1286,2,3,5,1,3,2,1,4,1,2,0,4,4,617,1935,
scooby_state_ffffffff7ee00a54|42|0 1238,5,3,1,3,3,3,3,5,2,3,3,1,5,654,1932,
scooby_state_ffffffff7ee00a54|26|0 1258,4,5,4,5,4,3,4,2,7,3,2,6,6,618,1931,
scooby_state_ffffffff7ee00a54|21|0 1294,5,6,6,2,1,3,4,4,4,3,3,4,0,582,1921,
scooby_state_ffffffff7ee00a54|45|0 1214,6,5,2,6,5,5,4,5,3,3,4,5,6,646,1919,
scooby_state_ffffffff7ee00a54|17|0 1298,4,2,3,2,3,3,5,5,3,2,6,2,4,574,1916,
scooby_state_ffffffff7ee00a54|33|0 1236,3,8,4,3,5,1,2,5,3,3,8,5,4,625,1915,
scooby_state_1008e80|53|0 1837,20,6,7,5,4,5,3,1,2,3,1,2,7,8,1911,
scooby_state_ffffffff7ee00a54|24|0 1279,2,9,4,3,3,4,3,0,4,4,1,3,7,585,1911,
scooby_state_ffffffff7ee00a54|10|0 1236,6,7,5,4,4,9,3,3,5,4,4,4,4,607,1905,
scooby_state_1000d28|10|0 1841,12,2,2,1,1,3,2,0,0,6,7,4,10,8,1899,
scooby_state_ffffffff7ee00a58|3|0 1239,7,6,5,1,8,3,3,2,5,7,5,5,1,596,1893,
scooby_state_ffffffff7ee00a54|54|0 1219,2,3,4,2,4,3,0,0,1,5,4,3,1,634,1885,
scooby_state_ffffffff7ee00a54|48|0 1190,2,3,2,6,3,3,2,3,4,2,3,4,2,650,1879,
scooby_state_1008e80|5|0 1774,19,11,5,5,8,7,5,6,9,7,2,0,4,7,1869,
scooby_state_ffffffff7ee00a54|57|0 1166,4,5,6,2,2,3,2,3,4,3,2,2,3,654,1861,
scooby_state_ffffffff7ee00a54|27|0 1228,3,2,3,4,5,3,8,3,5,5,2,4,4,582,1861,
scooby_state_ffffffff7ee00a54|47|0 1205,3,4,4,4,3,10,3,2,2,2,2,4,2,596,1846,
scooby_state_ffffffff7ee00a54|46|0 1198,2,2,4,1,5,3,2,5,3,3,2,2,2,600,1834,
scooby_state_ffffffff7ee00a54|15|0 1245,1,1,2,5,3,3,2,0,3,2,5,3,2,556,1833,
scooby_state_ffffffff7ee00a54|31|0 1201,2,1,1,4,6,4,4,2,5,4,1,3,1,565,1804,
scooby_state_1008e80|34|0 1718,15,7,7,4,3,3,7,3,5,5,7,0,3,11,1798,
scooby_state_1008e80|4|0 1713,25,9,4,4,7,4,0,6,2,3,3,1,4,6,1791,
scooby_state_ffffffff7ee00a58|5|0 1107,6,2,6,7,7,12,10,3,6,6,8,5,11,586,1782,
scooby_state_ffffffff7ee00a54|51|0 1171,1,4,5,1,2,3,3,1,0,2,0,5,4,577,1779,
scooby_state_ffffffff7ee00a54|7|0 1123,4,2,3,3,1,4,2,1,1,6,2,4,3,618,1777,
scooby_state_ffffffff7ee00a54|23|0 1172,4,4,5,3,1,8,4,6,3,6,3,2,8,541,1770,
scooby_state_ffffffff7ee00a54|11|0 1152,2,3,4,9,3,1,2,2,1,3,1,5,4,575,1767,
scooby_state_ffffffff7ee00a54|3|0 1144,1,2,4,6,4,1,4,3,4,4,5,5,5,573,1765,
scooby_state_ffffffff7ee00a54|35|0 1173,4,2,1,4,2,4,2,3,3,0,4,3,6,548,1759,
scooby_state_1008e80|0|0 1659,30,12,4,4,5,5,4,2,6,4,2,3,5,10,1755,
scooby_state_ffffffff7ee00a54|43|0 1147,1,3,2,4,5,3,5,4,3,3,3,3,7,557,1750,
scooby_state_1008e80|48|0 1659,18,15,4,1,3,6,4,2,5,3,9,3,6,11,1749,
scooby_state_ffffffff7ee00a54|55|0 1133,5,3,2,3,2,7,3,3,1,4,2,6,3,567,1744,
scooby_state_ffffffff7e7a9cc0|51|0 1736,0,3,0,0,0,1,0,0,0,0,1,0,0,0,1741,
scooby_state_ffffffff7ee00a54|39|0 1122,4,2,3,4,2,3,2,3,3,8,4,2,2,565,1729,
scooby_state_ffffffff7ee00a54|19|0 1188,2,0,3,2,1,1,4,2,2,0,4,4,1,512,1726,
scooby_state_10014ad14|52|15 1353,30,30,59,39,35,12,13,11,12,13,15,32,33,26,1713,
scooby_state_ffffffff7ee00a58|7|0 1117,6,7,6,6,3,4,1,3,3,5,4,1,4,534,1704,
scooby_state_10014ad14|52|51 1386,23,28,46,44,26,11,10,12,11,9,23,25,21,23,1698,
scooby_state_ffffffff7ee00a58|8|0 1079,3,7,11,5,3,3,4,3,5,7,3,1,5,535,1674,
scooby_state_ffffffff7ee00a54|63|0 1099,5,4,2,4,3,2,0,4,2,3,2,2,2,521,1655,
scooby_state_1000d28|8|0 1565,3,0,2,1,2,4,4,1,1,2,7,3,6,3,1604,
scooby_state_ffffffff7ee00a54|59|0 1047,0,3,2,3,3,2,4,4,5,0,4,3,4,506,1590,
scooby_state_1001498c0|35|-25 1587,0,0,0,0,0,1,0,1,0,0,0,1,0,0,1590,
scooby_state_ffffffff7ee00a58|10|0 1007,6,5,3,1,5,3,7,4,8,0,2,4,2,521,1578,
scooby_state_ffffffff7e7a9cc0|51|-9 1543,1,0,0,0,1,0,0,0,1,1,1,0,0,0,1548,
scooby_state_100149f00|60|25 1033,26,15,16,14,15,17,16,12,14,15,251,32,37,29,1542,
scooby_state_ffffffff7ee00a58|9|0 925,7,5,9,2,11,7,7,5,7,7,3,5,6,530,1536,
scooby_state_1008e80|38|0 1451,17,6,4,5,3,6,4,3,4,3,3,1,5,7,1522,
scooby_state_ffffffff7ee00a58|12|0 918,6,7,3,4,5,3,7,2,4,2,4,4,5,511,1485,
scooby_state_1008e80|39|0 1398,19,7,5,6,2,3,3,2,5,1,2,2,1,5,1461,
scooby_state_1000d28|3|0 1404,7,4,6,5,4,1,2,3,0,2,5,5,5,3,1456,
scooby_state_ffffffff7ee00a58|14|0 919,3,2,2,5,7,7,5,2,3,7,6,5,6,466,1445,
scooby_state_1000d28|63|0 1166,1,1,2,2,2,0,1,0,1,1,60,116,79,2,1434,
scooby_state_ffffffff7ee00a58|11|0 885,3,7,5,8,4,6,3,3,1,3,6,3,4,472,1413,
scooby_state_ffffffff7ee00a58|13|0 855,4,7,6,6,8,5,3,4,3,5,2,4,5,481,1398,
scooby_state_1000d28|33|0 1319,0,3,4,5,2,0,0,0,2,1,7,11,6,5,1365,
scooby_state_1008e80|63|0 1299,10,4,3,1,3,5,5,4,2,0,4,1,1,5,1347,
scooby_state_1008ec0|39|1 819,478,11,2,1,4,2,2,4,3,4,4,2,3,7,1346,
scooby_state_1008e80|43|0 1307,15,5,1,3,0,1,1,2,2,0,1,2,2,4,1346,
scooby_state_ffffffff7ee00a58|17|0 837,0,9,5,6,3,6,2,3,3,6,7,9,4,444,1344,
scooby_state_100115cc0|51|0 908,20,22,13,2,16,21,10,4,11,10,254,4,23,18,1336,
scooby_state_ffffffff7ee00a58|16|0 796,4,2,4,9,4,2,6,7,5,9,6,4,3,465,1326,
scooby_state_10014a040|1|-51 915,35,38,34,29,35,36,29,29,34,41,12,11,14,31,1323,
scooby_state_ffffffff7e7a9f00|60|8 907,31,13,12,14,11,12,11,11,13,10,186,22,30,34,1317,
scooby_state_1008e80|44|0 1257,13,5,7,3,7,2,2,2,2,2,0,5,1,5,1313,
scooby_state_ffffffff7e7abf00|60|0 1030,40,18,20,20,17,17,16,5,16,13,1,29,30,36,1308,
scooby_state_1000d28|12|0 1246,1,0,0,1,1,1,3,0,2,0,5,3,9,8,1280,
scooby_state_10014af1c|60|8 1021,26,15,17,14,12,12,10,20,14,11,20,25,20,26,1263,
scooby_state_1008ec0|0|0 670,209,151,17,17,24,20,12,31,19,22,7,0,9,49,1257,
scooby_state_ffffffff7ee00a58|18|0 783,5,4,2,3,3,4,2,5,2,5,5,3,4,424,1254,
scooby_state_1000d28|9|0 1206,2,1,4,1,4,0,0,1,1,1,3,7,6,2,1239,
scooby_state_1008ec0|25|1 744,417,10,5,3,3,4,3,3,0,4,7,0,5,12,1220,
scooby_state_1008e80|10|0 1150,14,7,5,2,1,3,1,4,2,1,2,2,1,8,1203,
scooby_state_ffffffff7ee00a58|20|0 743,2,3,1,5,5,4,2,7,3,6,3,3,4,412,1203,
scooby_state_1000d28|7|0 1156,2,4,2,2,4,0,2,0,0,1,3,1,8,3,1188,
scooby_state_10009011c|14|0 617,37,39,39,38,44,34,24,35,33,36,124,26,31,29,1186,
scooby_state_1000d28|2|0 1154,1,3,3,4,0,0,2,0,1,1,1,4,7,1,1182,
scooby_state_1000d28|11|0 1146,3,2,2,2,2,0,1,1,0,0,4,6,7,0,1176,
scooby_state_ffffffff7ee00a58|15|0 706,6,6,6,5,0,2,4,7,5,1,5,4,6,371,1134,
scooby_state_1008ec0|44|1 675,396,7,2,7,5,5,2,2,3,4,3,2,2,8,1123,
scooby_state_ffffffff7ee00a58|21|0 685,6,7,3,8,3,2,3,1,5,5,6,7,5,373,1119,
scooby_state_100115cc0|51|1 949,12,6,10,9,13,13,4,6,7,5,28,14,21,16,1113,
scooby_state_ffffffff7e7b7cc0|51|1 872,27,15,18,29,23,21,9,8,10,11,4,14,24,28,1113,
scooby_state_ffffffff7e7bccc0|51|1 1111,0,0,0,0,0,0,0,0,1,0,1,0,0,0,1113,
scooby_state_1001498d8|14|0 923,7,11,25,6,10,4,11,4,21,15,28,10,7,25,1107,
scooby_state_10013ecc0|51|1 922,10,14,12,11,11,12,7,8,7,11,35,12,8,18,1098,
scooby_state_ffffffff7ee00a58|25|0 688,4,11,4,4,4,6,3,4,5,2,7,3,5,345,1095,
scooby_state_1000d28|6|0 1074,0,1,3,2,0,1,1,1,0,1,0,2,4,0,1090,
scooby_state_ffffffff7ee00cc0|51|1 5,2,3,2,3,5,3,0,1,1,0,1056,1,0,1,1083,
scooby_state_1008ec0|59|1 655,368,9,3,5,6,3,4,3,2,1,5,2,2,9,1077,
scooby_state_1008e80|33|0 1035,8,4,1,0,3,3,2,1,1,0,5,4,0,5,1072,
scooby_state_ffffffff7e7a9cdc|14|0 591,31,37,44,56,43,44,43,19,30,31,3,31,32,36,1071,
scooby_state_ffffffff7e7da380|14|0 754,20,16,9,22,23,26,21,26,22,18,45,35,14,14,1065,
scooby_state_1000d28|4|0 1018,2,1,2,1,3,3,4,2,1,0,2,6,6,2,1053,
scooby_state_ffffffff7ee00a58|22|0 661,5,2,4,2,9,9,3,6,3,2,8,3,4,332,1053,
scooby_state_10014a8c0|35|34 639,24,19,30,28,30,8,14,9,9,7,166,12,28,21,1044,
scooby_state_1008ec0|5|1 661,332,9,3,3,5,5,3,1,3,2,4,3,4,5,1043,
scooby_state_10008a17c|48|0 999,4,1,5,2,3,3,1,1,1,2,1,4,2,2,1031,
scooby_state_1008ec0|54|1 586,385,6,7,1,4,2,8,5,3,2,5,2,2,9,1027,
scooby_state_1000d28|62|0 831,1,3,0,1,1,3,1,2,1,0,26,96,58,1,1025,
scooby_state_ffffffff7ee00a58|24|0 644,4,1,2,4,6,1,3,3,8,4,3,3,3,325,1014,
scooby_state_ffffffff7ee00a58|19|0 647,6,5,2,4,5,5,2,5,2,3,4,3,8,303,1004,
scooby_state_1008ec0|30|1 620,332,7,3,2,5,5,5,3,3,5,1,1,0,9,1001,
scooby_state_1008ec0|20|1 629,321,7,5,1,4,4,7,3,1,5,3,1,2,7,1000,
scooby_state_1008ec0|10|1 634,331,7,0,1,2,6,0,3,1,3,3,3,1,3,998,
scooby_state_1000d28|18|0 945,4,5,0,7,2,1,1,3,3,0,4,6,4,7,992,
scooby_state_1008ec0|49|1 582,350,8,0,4,1,6,3,5,2,3,6,1,0,12,983,
scooby_state_ffffffff7ee00a58|26|0 613,6,6,4,2,2,3,1,3,2,1,4,4,3,324,978,
scooby_state_1000d28|0|0 924,1,0,2,1,1,1,5,2,0,1,7,6,9,2,962,
scooby_state_ffffffff7ee00a58|28|0 616,4,3,3,5,7,3,5,5,4,5,3,4,1,291,959,
scooby_state_10008a17c|24|0 932,1,4,1,2,1,2,1,0,1,1,1,1,2,5,955,
scooby_state_1008e80|49|0 921,7,2,1,3,2,2,1,2,0,2,2,2,2,3,952,
scooby_state_1000d28|5|0 919,2,0,0,1,2,0,0,0,1,1,7,6,5,1,945,
scooby_state_1000d28|56|0 877,0,2,5,0,2,5,1,2,2,4,8,18,13,2,941,
scooby_state_1008e80|15|0 881,11,9,0,3,4,2,3,2,2,4,1,0,2,6,930,
scooby_state_10008a17c|44|0 893,2,2,3,1,2,4,1,4,0,2,1,1,2,4,922,
scooby_state_1008ec0|34|1 543,325,8,3,3,3,0,4,3,1,2,7,1,5,3,911,
scooby_state_1008ec0|15|1 571,294,5,4,1,1,4,3,1,3,1,5,5,3,8,909,
scooby_state_ffffffff7ee00a58|27|0 558,8,4,6,4,3,7,5,5,3,5,3,1,2,289,903,
scooby_state_ffffffff7ee00a58|23|0 546,3,3,6,2,3,2,2,2,2,4,2,5,4,308,894,
scooby_state_ffffffff7ee008c0|10|0 843,1,4,2,3,1,4,1,0,2,1,5,7,2,6,882,
scooby_state_10008a17c|59|0 846,0,2,2,2,0,0,1,3,1,0,0,1,4,1,863,
scooby_state_1008d20|52|0 46,6,10,708,6,7,4,1,4,5,3,0,5,42,4,851,
scooby_state_ffffffff7e784cf0|51|1 850,0,0,0,0,0,0,0,0,0,0,0,0,0,0,850,
scooby_state_10008a17c|0|0 815,5,2,2,3,1,2,3,1,1,4,1,2,1,6,849,
scooby_state_ffffffff7e784c8c|50|-2 771,1,1,1,3,0,1,2,0,0,0,67,0,0,1,848,
scooby_state_ffffffff7e7888e4|35|-15 676,21,17,12,21,17,16,9,6,4,5,0,10,11,14,839,
scooby_state_1000d28|13|0 808,1,5,2,1,2,1,3,0,0,2,1,4,7,2,839,
scooby_state_ffffffff7ee00a58|29|0 526,3,8,5,2,2,3,7,5,1,2,5,1,0,261,831,
scooby_state_1000d28|24|0 810,0,0,0,0,1,0,1,1,0,3,1,0,0,6,823,
scooby_state_1000d28|42|0 772,0,1,1,1,1,4,2,0,2,4,9,12,10,2,821,
scooby_state_10008a17c|49|0 789,0,3,1,1,3,1,1,1,3,1,0,2,0,3,809,
scooby_state_10008a17c|5|0 787,1,0,1,3,1,1,3,2,1,1,0,3,4,0,808,
scooby_state_1000d28|1|0 784,1,0,1,1,2,0,3,1,0,1,1,7,5,1,808,
scooby_state_1000d28|61|0 660,2,4,1,1,1,0,1,2,2,0,28,55,47,3,807,
scooby_state_1000d28|58|0 736,1,1,1,3,0,0,0,0,0,1,19,23,18,2,805,
scooby_state_1000d28|32|0 791,0,1,0,1,0,0,1,1,0,1,3,4,2,0,805,
scooby_state_10008a17c|14|0 791,0,1,0,3,1,0,0,1,1,0,1,2,1,1,803,
scooby_state_10008a168|63|0 740,6,4,8,3,5,4,4,5,2,3,7,2,2,8,803,
scooby_state_10008a17c|45|0 781,1,2,1,0,1,2,0,1,2,0,0,2,4,2,799,
scooby_state_1008ee8|45|1 662,10,8,13,5,7,5,9,10,5,7,16,9,11,21,798,
scooby_state_1000d28|49|0 765,0,2,2,3,0,0,1,0,2,1,3,9,7,1,796,
scooby_state_1000d28|60|0 692,2,1,2,1,1,0,0,1,0,3,13,43,23,2,784,
scooby_state_1008ee8|6|1 673,9,4,10,9,8,3,5,5,4,1,12,5,8,26,782,
scooby_state_10013ec80|50|13 656,7,9,9,5,10,12,8,23,6,6,0,14,5,11,781,
scooby_state_10008a17c|23|0 762,0,3,0,0,1,0,0,2,2,1,1,2,2,1,777,
scooby_state_1008e80|28|0 741,12,4,2,3,2,1,1,2,1,2,1,1,0,1,774,
scooby_state_ffffffff7ee00a58|30|0 476,4,3,6,2,4,2,3,1,3,3,4,3,2,252,768,
scooby_state_10008a17c|63|0 750,3,0,0,1,2,2,3,0,2,1,0,1,0,2,767,
scooby_state_1000d28|22|0 753,1,1,0,0,0,1,2,0,0,1,1,3,3,1,767,
scooby_state_10008a17c|22|0 748,0,1,1,0,0,2,1,3,0,0,1,2,1,4,764,
scooby_state_10008a17c|26|0 750,2,0,0,2,1,2,1,0,0,1,0,4,0,0,763,
scooby_state_10008a17c|43|0 744,1,2,1,1,0,1,4,1,2,2,0,1,2,1,763,
scooby_state_10008a17c|54|0 744,0,1,4,2,0,0,0,4,0,1,0,0,0,2,758,
scooby_state_10008a17c|52|0 735,1,1,1,0,1,1,3,3,0,1,1,0,0,5,753,
scooby_state_10008a17c|37|0 735,1,2,2,1,1,1,1,0,0,0,2,2,0,3,751,
scooby_state_1000d28|45|0 719,3,0,0,0,3,3,2,0,2,2,3,10,3,1,751,
scooby_state_10008a17c|10|0 732,3,1,1,1,1,1,1,0,2,0,0,1,1,3,748,
scooby_state_10008a17c|16|0 725,1,2,2,0,2,1,1,4,0,2,0,1,1,3,745,
scooby_state_1008ee8|40|1 641,5,9,6,10,7,4,5,6,3,6,4,5,7,24,742,
scooby_state_ffffffff7e7b7cb4|50|-1 647,5,5,4,5,8,9,0,0,0,3,40,3,3,6,738,
scooby_state_10008a17c|31|0 716,1,3,1,1,2,1,0,0,2,0,0,3,0,3,733,
scooby_state_10008a17c|34|0 716,2,1,2,1,1,1,3,2,0,0,0,0,2,1,732,
scooby_state_1000d28|46|0 699,1,1,0,0,0,1,1,0,1,3,2,9,6,6,730,
scooby_state_1008ec0|35|1 437,262,6,2,4,1,6,1,2,2,1,1,0,1,4,730,
scooby_state_10008a17c|19|0 713,1,2,0,1,1,1,2,1,1,0,0,0,0,3,726,
scooby_state_10014aec0|59|7 481,31,0,3,0,4,5,5,4,5,2,0,8,164,11,723,
scooby_state_1008e80|54|0 692,5,5,0,1,1,5,0,2,1,3,1,0,1,3,720,
scooby_state_100115cb4|50|-2 478,23,23,18,19,25,26,7,8,10,9,16,20,22,16,720,
scooby_state_10008a17c|15|0 707,1,2,1,1,1,1,1,1,0,0,0,0,1,2,719,
scooby_state_1000d28|14|0 704,0,0,1,1,0,1,0,0,0,1,3,4,3,0,718,
scooby_state_10008a17c|20|0 703,2,1,1,1,1,2,0,1,0,0,0,1,3,2,718,
scooby_state_1000d28|19|0 697,2,2,0,0,1,1,1,2,1,1,2,3,2,2,717,
scooby_state_10008a17c|53|0 700,2,1,1,1,1,1,0,1,1,1,2,1,0,2,715,
scooby_state_10008a17c|4|0 694,1,3,2,1,1,0,1,0,1,2,1,2,0,3,712,
scooby_state_10008a17c|42|0 689,1,0,0,4,1,1,3,1,1,1,1,2,4,2,711,
scooby_state_1008ee8|1|1 613,5,8,4,6,2,8,7,8,6,3,9,6,4,21,710,
scooby_state_10008a17c|33|0 691,4,1,1,3,3,2,0,0,2,0,1,0,2,0,710,
scooby_state_10008a17c|56|0 694,1,1,1,2,0,0,0,0,1,1,0,0,2,2,705,
scooby_state_10008a17c|61|0 682,3,1,1,0,2,2,4,0,1,2,1,3,3,0,705,
scooby_state_10008a17c|21|0 696,1,2,0,0,2,1,1,1,0,0,0,0,1,0,705,
scooby_state_10008a17c|32|0 689,1,3,2,2,0,2,1,1,0,1,0,0,1,2,705,
scooby_state_10008a17c|30|0 683,2,1,1,1,2,4,2,2,4,0,1,0,0,2,705,
scooby_state_10008a17c|60|0 686,0,1,0,4,3,1,0,3,0,2,2,1,2,0,705,
scooby_state_10008a17c|6|0 695,1,1,0,1,0,1,0,1,1,0,0,1,0,0,702,
scooby_state_ffffffff7e7c3cc4|51|0 677,1,1,0,1,0,1,0,0,0,0,18,0,1,0,700,
scooby_state_10008a17c|35|0 678,4,1,2,1,0,2,0,0,0,1,5,1,1,2,698,
scooby_state_10008a17c|1|0 682,3,0,4,0,0,0,3,2,0,0,1,0,0,2,697,
scooby_state_10008a17c|28|0 684,1,3,1,1,0,0,3,1,0,0,1,0,0,1,696,
scooby_state_10008a17c|36|0 684,0,2,0,0,0,2,1,1,2,0,0,0,2,2,696,
scooby_state_10008a17c|11|0 682,1,0,3,1,1,1,0,0,1,2,0,2,0,2,696,
scooby_state_1000d28|38|0 679,2,1,2,1,1,1,0,1,2,2,0,1,1,1,695,
scooby_state_10008a17c|3|0 678,2,1,1,0,0,0,1,2,1,1,0,1,3,0,691,
scooby_state_10008a17c|9|0 673,2,2,2,1,3,0,2,0,0,0,1,1,0,3,690,
scooby_state_ffffffff7ee00a58|32|0 455,3,3,3,4,1,6,2,2,1,4,1,1,1,203,690,
scooby_state_10008a17c|12|0 673,0,2,1,0,0,1,1,4,0,0,0,0,1,3,686,
scooby_state_10008a17c|25|0 672,2,1,1,0,1,0,2,0,0,1,0,1,4,1,686,
scooby_state_10008a17c|2|0 670,1,1,1,0,0,0,2,1,2,2,0,0,2,3,685,
scooby_state_1000d28|59|0 598,1,1,1,0,0,2,0,1,1,1,13,32,26,2,679,
scooby_state_1008ee8|50|1 591,5,10,5,3,6,3,6,2,6,5,8,5,9,15,679,
scooby_state_ffffffff7ee00c80|50|-1 492,15,14,7,12,11,5,43,5,3,3,33,9,9,17,678,
scooby_state_1008e40|57|5 570,15,0,11,1,4,3,1,3,2,7,18,0,32,11,678,
scooby_state_1000d28|23|0 662,0,3,0,1,0,2,0,0,0,1,2,5,2,0,678,
scooby_state_10008a17c|7|0 665,1,1,1,0,1,0,0,1,3,0,0,2,1,1,677,
scooby_state_10008a17c|55|0 664,2,2,0,1,0,1,1,0,0,1,1,0,3,0,676,
scooby_state_1008ec0|59|2 537,12,17,9,9,7,7,4,5,6,6,21,0,15,20,675,
scooby_state_ffffffff7ee00a58|34|0 420,5,4,1,2,4,2,3,4,1,5,1,1,2,220,675,
scooby_state_1008ee8|55|1 587,8,3,7,8,3,4,9,8,1,0,6,2,6,23,675,
scooby_state_10008a17c|50|0 659,3,0,0,1,1,2,0,0,0,4,0,0,0,1,671,
scooby_state_10008a17c|38|0 657,2,1,3,0,0,2,0,0,3,0,0,1,0,2,671,
scooby_state_10008a17c|58|0 645,5,1,0,1,2,2,0,2,5,2,1,1,1,2,670,
scooby_state_10013e978|37|-14 554,4,12,12,10,3,5,9,9,5,5,5,10,15,12,670,
scooby_state_10008a17c|13|0 656,2,0,1,1,2,1,1,0,0,1,2,2,0,1,670,
scooby_state_10008a17c|17|0 655,3,1,1,2,1,1,1,0,0,0,0,2,0,2,669,
scooby_state_10008a17c|41|0 645,1,2,2,3,2,2,1,1,3,0,0,0,2,2,666,
scooby_state_10008a17c|39|0 656,1,0,2,1,0,0,0,0,1,2,0,0,1,2,666,
scooby_state_10008a17c|27|0 650,1,0,1,1,1,1,1,0,0,0,0,5,1,3,665,
scooby_state_1000d28|37|0 645,1,0,0,2,1,0,0,0,1,0,3,4,3,1,661,
scooby_state_10008a17c|47|0 642,0,3,1,1,1,2,2,0,1,2,0,0,3,2,660,
scooby_state_1008ee8|35|1 556,3,5,7,8,8,5,3,5,3,10,10,2,8,27,660,
scooby_state_ffffffff7ee00a58|38|0 389,4,1,4,2,2,1,3,3,1,4,1,0,4,238,657,
scooby_state_10008a17c|8|0 645,0,2,2,0,0,1,2,0,0,0,0,1,1,2,656,
scooby_state_10008a17c|29|0 646,1,2,0,0,1,2,0,0,0,1,0,0,1,2,656,
scooby_state_1000d28|57|0 587,0,2,2,0,0,0,0,3,0,1,16,23,17,3,654,
scooby_state_ffffffff7ee00a58|41|0 385,2,2,4,3,0,2,2,2,3,0,1,3,3,239,651,
scooby_state_10008a17c|18|0 639,2,2,0,0,0,1,2,0,0,0,2,0,1,1,650,
scooby_state_1008ec0|29|1 392,229,5,4,3,1,4,0,1,1,0,2,3,2,3,650,
scooby_state_ffffffff7ee00a58|36|0 390,1,5,2,1,3,2,5,3,4,4,3,0,1,224,648,
scooby_state_ffffffff7ee00a58|31|0 402,2,5,3,3,5,4,4,4,2,3,1,1,3,203,645,
scooby_state_10008a17c|57|0 629,1,2,2,2,0,0,1,1,1,0,0,2,2,2,645,
scooby_state_1008ee8|16|1 571,6,8,3,7,2,5,3,6,2,3,8,2,6,12,644,
scooby_state_10008a17c|40|0 626,1,1,1,0,0,0,0,0,1,0,1,2,1,2,636,
scooby_state_1000d28|21|0 615,2,1,0,0,1,1,2,2,4,0,2,3,0,1,634,
scooby_state_ffffffff7ee00a58|33|0 393,2,3,4,3,2,1,2,3,3,1,3,3,3,207,633,
scooby_state_10008a17c|62|0 619,2,2,1,0,2,2,0,1,0,1,0,0,0,2,632,
scooby_state_10008a17c|46|0 621,0,1,0,0,2,1,1,2,0,1,0,0,0,1,630,
scooby_state_ffffffff7ee00a58|42|0 391,5,1,3,4,6,7,1,2,3,2,1,1,5,195,627,
scooby_state_1008ee8|11|1 546,3,4,3,3,2,2,2,13,5,7,4,4,6,19,623,
scooby_state_10008a17c|51|0 606,1,5,1,1,1,1,0,0,0,2,0,2,0,1,621,
scooby_state_1000d28|41|0 598,0,1,1,1,0,1,1,1,0,1,4,6,6,0,621,
scooby_state_ffffffff7ee00a58|37|0 380,4,4,3,5,4,1,3,5,4,2,2,2,5,191,615,
scooby_state_ffffffff7e788c80|50|13 477,15,7,8,9,11,6,7,8,5,5,0,19,11,21,609,
scooby_state_1000d28|36|0 582,0,3,1,0,0,2,0,0,0,2,7,4,5,2,608,
scooby_state_1000d28|39|0 589,1,0,0,0,2,1,1,2,0,0,3,6,2,0,607,
scooby_state_1008ee8|47|3 412,9,7,9,5,7,9,8,8,7,8,84,4,4,25,606,
scooby_state_ffffffff7ee00a58|40|0 393,3,3,1,2,2,2,4,0,2,2,1,1,4,186,606,
scooby_state_1008ee8|41|2 459,6,7,6,6,8,12,5,5,6,12,12,10,9,42,605,
scooby_state_1008ee8|21|1 521,7,7,5,3,6,4,6,6,3,6,5,1,2,18,600,
scooby_state_1008ee8|8|3 400,11,6,5,14,8,15,4,5,7,7,78,4,4,32,600,
scooby_state_10008a168|30|0 581,3,2,0,2,2,0,0,0,2,0,1,4,0,3,600,
scooby_state_10014a040|1|-59 463,12,13,11,12,17,8,7,7,10,12,2,5,6,12,597,
scooby_state_1000d28|50|0 568,0,0,0,0,0,0,0,0,0,2,0,10,9,1,590,
scooby_state_1000d28|31|0 571,2,0,1,0,1,0,1,1,1,0,2,3,4,3,590,
scooby_state_ffffffff7ee00a58|44|0 358,4,4,3,1,0,3,0,2,3,2,4,1,3,197,585,
scooby_state_ffffffff7ee00a58|45|0 352,2,2,2,1,3,4,1,2,3,3,2,0,4,201,582,
scooby_state_1008ee8|42|3 383,8,9,6,6,8,11,7,5,7,2,84,4,3,39,582,
scooby_state_1008ee8|7|2 429,8,14,10,8,12,9,11,8,4,10,14,11,11,21,580,
scooby_state_1008ee8|3|3 401,5,4,6,6,6,5,7,2,5,3,84,5,9,25,573,
scooby_state_ffffffff7ee00a58|35|0 346,2,2,4,3,6,0,4,2,1,0,2,5,4,192,573,
scooby_state_1008ee8|60|1 482,7,6,6,8,7,6,3,3,7,2,8,5,3,17,570,
scooby_state_ffffffff7ee00a58|48|0 345,4,4,3,2,1,2,1,4,1,2,2,2,3,194,570,
scooby_state_ffffffff7ee00a58|46|0 335,1,2,5,0,2,2,3,0,1,1,2,4,0,197,555,
scooby_state_1008ee8|51|2 414,5,4,11,9,13,10,11,10,5,6,9,13,9,23,552,
scooby_state_1008ee8|26|1 457,7,2,4,7,6,5,6,8,4,6,10,6,3,18,549,
scooby_state_ffffffff7ee00a58|39|0 340,3,4,1,1,1,2,2,5,1,1,2,1,2,183,549,
scooby_state_1008ee8|2|2 431,3,6,3,9,5,5,7,10,6,3,7,13,10,25,543,
scooby_state_1008ee8|46|2 398,8,8,9,13,8,7,7,7,8,10,10,8,10,28,539,
scooby_state_1000d28|51|0 503,1,0,1,0,1,1,0,0,1,0,1,9,8,4,530,
scooby_state_1008ee8|56|2 396,4,7,6,10,9,6,5,8,7,7,15,14,9,25,528,
scooby_state_1008ee8|52|3 328,8,10,8,13,7,5,7,13,9,5,70,3,8,34,528,
scooby_state_ffffffff7ee00a58|43|0 288,2,4,3,2,3,1,6,2,2,3,5,3,3,195,522,
scooby_state_1000d28|43|0 486,1,0,2,0,1,1,0,0,1,1,4,7,8,0,512,
scooby_state_10014a040|1|-56 357,6,11,35,9,15,10,13,12,6,15,3,0,1,17,510,
scooby_state_1008ee8|36|2 373,9,11,8,6,7,4,5,9,6,5,9,14,15,28,509,
scooby_state_1000d28|48|0 478,0,0,0,1,0,2,1,0,0,1,5,9,5,6,508,
scooby_state_10008bf64|58|0 480,2,2,1,1,4,1,2,2,2,3,2,3,1,1,507,
scooby_state_1002658e0|35|-24 379,0,0,0,0,0,0,104,0,0,0,0,22,0,2,507,
scooby_state_1000d28|27|0 479,2,2,1,0,2,1,0,1,1,2,1,7,5,2,506,
scooby_state_1000900ac|63|0 290,8,13,13,13,13,11,11,11,12,12,31,19,23,24,504,
scooby_state_1000d28|34|0 483,2,0,2,3,0,2,0,0,1,1,3,1,4,0,502,
scooby_state_1008ee8|13|3 340,4,8,5,7,6,11,6,4,8,6,70,3,8,15,501,
scooby_state_1008ee8|37|3 337,4,5,7,11,6,9,3,11,4,3,69,3,3,24,499,
scooby_state_1000d28|47|0 470,0,3,2,0,1,1,3,1,0,0,3,6,6,2,498,
scooby_state_ffffffff7ee00a58|49|0 319,2,3,1,1,5,3,2,2,2,1,1,4,1,148,495,
scooby_state_ffffffff7ee00a58|50|0 293,2,1,1,2,1,3,2,4,3,0,0,1,5,174,492,
scooby_state_ffffffff7e788c80|50|15 398,13,12,5,3,3,8,6,6,4,6,0,3,8,14,489,
scooby_state_ffffffff7e7ac32c|61|0 195,23,15,18,19,13,17,4,18,16,18,24,38,31,34,483,
scooby_state_100149830|63|0 369,4,3,1,3,4,1,4,2,2,2,75,2,3,5,480,
scooby_state_ffffffff7e7b7adc|61|0 136,16,15,18,14,16,18,64,17,19,16,0,48,40,39,476,
scooby_state_ffffffff7ee00a58|47|0 291,1,2,1,1,1,0,0,3,1,1,1,1,1,169,474,
scooby_state_1000ca8|0|0 277,17,16,11,8,21,16,10,23,14,14,13,8,8,18,474,
scooby_state_ffffffff7e7c3cc4|51|-6 471,0,0,0,0,0,0,0,0,0,0,0,0,0,0,471,
scooby_state_ffffffff7e7a9ec0|59|7 363,11,7,7,0,6,12,7,5,7,7,0,0,15,21,468,
scooby_state_ffffffff7e7bce40|57|5 297,8,0,8,6,2,0,1,2,2,2,36,15,85,1,465,
scooby_state_1008ee8|17|2 363,7,3,3,10,6,11,4,3,3,3,9,6,15,15,461,
scooby_state_1008ee8|12|2 360,9,8,6,7,4,9,8,5,3,3,6,7,5,19,459,
scooby_state_ffffffff7e7abeec|59|0 407,12,0,7,5,4,1,3,0,0,3,1,0,3,13,459,
scooby_state_1000d28|55|0 413,0,1,0,1,0,0,1,0,0,1,12,12,14,3,458,
scooby_state_1008ee8|30|1 392,4,5,5,4,2,5,2,5,2,2,4,5,4,16,457,
scooby_state_ffffffff7ee00e40|57|6 0,12,1,0,1,2,2,0,4,1,0,0,2,431,0,456,
scooby_state_ffffffff7ee00a58|52|0 284,1,5,3,0,1,0,3,4,2,1,2,1,3,146,456,
scooby_state_1000d28|40|0 428,0,1,1,0,0,1,0,0,2,0,5,6,8,3,455,
scooby_state_1000d28|29|0 432,0,2,2,0,1,4,2,0,0,0,0,5,4,2,454,
scooby_state_ffffffff7ee00cc0|51|-6 1,4,6,6,3,5,2,0,0,0,0,417,5,3,1,453,
scooby_state_1000d28|52|0 429,2,2,1,0,0,0,0,1,1,0,7,3,3,1,450,
scooby_state_ffffffff7ee00a58|51|0 266,2,6,2,2,1,1,0,0,1,1,2,6,1,159,450,
scooby_state_10014ae50|57|-2 29,363,11,16,7,2,3,3,3,2,3,0,2,0,6,450,
scooby_state_1000d28|20|0 433,1,1,1,0,3,0,1,0,0,0,2,3,2,1,448,
scooby_state_1008ee8|32|3 288,7,5,10,9,7,6,5,5,6,5,62,4,6,23,448,
scooby_state_1008ee8|20|1 366,4,5,6,2,8,9,6,3,9,3,7,1,3,15,447,
scooby_state_10008bf64|48|0 420,1,2,0,0,2,2,2,1,2,2,3,1,3,0,441,
scooby_state_ffffffff7ee008c0|0|0 410,2,4,3,0,1,1,0,3,1,1,2,1,1,5,435,
scooby_state_1008e80|20|0 418,6,3,2,0,1,1,0,0,2,0,1,1,0,0,435,
scooby_state_1008ee8|18|3 275,10,5,6,7,4,4,5,4,8,6,68,2,4,25,433,
scooby_state_10008bf70|61|0 392,4,2,3,4,1,2,0,2,2,0,13,2,4,1,432,
scooby_state_1008ee8|36|1 382,8,4,4,2,2,1,2,3,2,2,4,1,7,8,432,
scooby_state_1008ee8|57|3 272,8,5,7,8,3,6,8,0,11,7,72,3,3,16,429,
scooby_state_10014a350|14|0 229,36,49,14,3,12,8,0,6,3,5,29,17,10,8,429,
scooby_state_1008ee8|31|1 376,3,4,2,2,2,1,1,5,4,3,8,5,2,11,429,
scooby_state_1000d28|15|0 410,2,0,1,1,1,0,1,1,0,2,1,5,3,0,428,
scooby_state_1000d28|26|0 406,0,3,1,0,0,2,1,0,0,2,3,4,5,0,427,
scooby_state_1008ee8|59|1 359,6,8,2,4,6,4,4,3,3,1,7,2,5,12,426,
scooby_state_1008ee8|41|1 377,1,6,5,4,4,3,3,2,2,1,4,2,2,10,426,
scooby_state_10008bf78|55|0 409,4,0,2,0,0,0,0,0,1,1,2,2,2,3,426,
scooby_state_1000d28|28|0 409,0,1,0,0,0,1,0,2,0,0,2,8,0,0,423,
scooby_state_1000d28|53|0 396,0,1,2,0,0,2,0,0,1,0,6,5,7,2,422,
scooby_state_1000d28|17|0 403,2,2,0,0,1,0,0,1,2,0,1,4,0,0,416,
scooby_state_1008ee8|61|2 313,7,5,7,6,4,7,4,2,6,8,8,7,10,17,411,
scooby_state_1000d28|54|0 387,0,1,2,2,1,0,0,0,0,0,1,6,4,1,405,
scooby_state_10008a168|0|0 388,0,2,0,1,0,0,1,2,0,2,0,1,1,3,401,
scooby_state_ffffffff7e7df040|16|0 295,7,13,11,10,9,11,7,6,5,9,9,1,1,5,399,
scooby_state_10014ad70|3|0 377,0,0,3,1,2,0,0,2,0,2,2,2,0,5,396,
scooby_state_1008ee8|22|3 248,5,6,6,7,7,8,5,6,6,5,56,2,3,25,395,
scooby_state_100265ec0|59|2 361,4,0,4,0,0,3,0,0,4,3,0,0,0,14,393,
scooby_state_1008ee8|22|2 300,5,4,6,4,7,9,9,4,5,1,4,6,7,20,391,
scooby_state_ffffffff7ee00a58|55|0 242,1,2,1,1,5,1,0,0,2,0,2,2,0,131,390,
scooby_state_1000d28|44|0 367,0,0,1,2,1,0,0,0,1,1,5,2,5,0,385,
scooby_state_ffffffff7e7bccb4|50|-2 384,0,0,0,0,0,0,0,0,0,0,0,0,0,0,384,
scooby_state_1008ee8|48|4 185,4,4,9,10,10,5,4,4,5,7,10,91,7,26,381,
scooby_state_1008e80|23|0 360,5,2,0,0,3,1,1,0,1,3,0,2,1,2,381,
scooby_state_ffffffff7ee008c0|2|0 355,1,1,0,1,2,2,0,1,2,2,1,2,2,5,377,
scooby_state_ffffffff7e7bccc0|51|-6 374,0,0,0,0,0,0,0,0,0,0,0,0,1,0,375,
scooby_state_10094a0|63|0 236,9,4,9,6,8,4,6,12,6,12,26,15,12,9,374,
scooby_state_1008ec0|40|1 240,114,2,2,1,0,1,0,1,1,1,2,1,3,4,373,
scooby_state_ffffffff7e7bccb4|50|0 372,0,0,0,0,0,0,0,0,0,0,0,0,0,0,372,
scooby_state_1008ee8|62|3 246,4,8,3,5,7,6,4,2,1,5,56,1,5,19,372,
scooby_state_10008a168|14|0 352,0,1,1,2,3,2,1,1,1,0,2,1,0,4,371,
scooby_state_10014ad64|2|0 340,1,0,2,1,1,2,4,1,2,3,4,2,2,4,369,
scooby_state_1008ee8|2|1 321,3,4,2,6,2,7,2,1,0,2,0,3,1,14,368,
scooby_state_1008ec0|1|1 229,119,1,0,2,0,1,1,2,0,1,3,2,2,3,366,
scooby_state_ffffffff7ee008c0|63|0 346,0,2,3,1,2,0,1,1,1,1,2,1,0,4,365,
scooby_state_1008ee8|28|3 237,8,6,2,10,4,3,3,3,5,3,48,2,7,22,363,
scooby_state_ffffffff7e7b7cb4|50|0 313,7,3,5,0,4,5,0,1,3,2,1,2,8,9,363,
scooby_state_10014ad70|0|0 340,2,1,2,0,2,2,3,1,1,0,1,3,1,4,363,
scooby_state_100115cb4|50|0 237,19,10,10,11,10,7,5,5,5,4,10,9,10,11,363,
scooby_state_1008ee8|31|2 280,11,5,7,1,5,8,5,4,5,4,8,4,6,10,363,
scooby_state_1000ca8|16|0 220,12,8,11,9,6,11,10,14,9,10,7,12,8,13,360,
scooby_state_1008ee8|25|1 298,2,4,5,3,6,5,4,2,6,3,2,3,4,12,359,
scooby_state_ffffffff7ee008c0|62|0 336,1,1,3,2,0,2,2,5,0,0,0,4,0,3,359,
scooby_state_10008a168|3|0 338,2,0,1,1,1,1,2,0,0,1,0,2,2,5,356,
scooby_state_10008a168|45|0 335,1,3,1,2,0,3,1,1,0,2,1,0,1,1,352,
scooby_state_10008bf64|33|0 331,1,3,0,2,1,1,0,0,2,0,0,0,3,4,348,
scooby_state_1000d28|30|0 324,2,2,0,1,1,0,0,0,0,3,0,6,4,2,345,
scooby_state_10008a168|24|0 322,1,2,0,0,2,0,0,1,1,0,3,0,5,5,342,
scooby_state_1008ee8|21|2 269,7,3,5,3,6,2,9,5,0,3,5,6,8,8,339,
scooby_state_ffffffff7ee00c80|50|0 278,1,0,7,2,5,3,0,2,3,6,4,12,6,9,338,
scooby_state_1008ee8|4|4 164,7,2,8,10,7,5,6,6,5,4,9,92,4,7,336,
scooby_state_ffffffff7ee008c0|61|0 318,2,1,2,0,0,1,3,3,1,1,1,1,0,1,335,
scooby_state_1008ee8|23|3 224,5,4,2,3,5,5,1,2,3,2,51,3,3,19,332,
scooby_state_10008a168|61|0 308,0,2,2,0,0,2,0,1,4,2,2,2,2,0,327,
scooby_state_1008ee8|27|2 242,4,5,7,5,4,5,8,6,1,6,3,6,8,17,327,
scooby_state_ffffffff7ee008c0|4|0 304,0,2,0,2,2,5,1,2,0,0,2,3,2,0,325,
scooby_state_10008a168|29|0 302,2,2,3,1,3,2,1,1,1,0,1,1,0,4,324,
scooby_state_1008ee8|9|4 160,10,3,4,8,4,5,4,5,4,4,10,78,7,18,324,
scooby_state_ffffffff7ee008c0|3|0 308,1,2,4,1,0,1,1,1,0,0,2,1,0,2,324,
scooby_state_100192c|10|0 172,7,4,9,5,12,6,8,7,10,10,48,1,7,15,321,
scooby_state_ffffffff7ee008c0|59|0 308,2,1,1,2,1,1,0,1,0,0,0,0,1,0,318,
scooby_state_10008bf64|37|0 298,1,1,0,4,2,3,0,0,3,0,1,3,0,2,318,
scooby_state_1008e80|59|0 302,9,1,1,0,0,0,0,0,0,0,0,0,1,1,315,
scooby_state_1008ee8|38|4 147,4,6,13,1,7,5,2,3,9,4,7,86,4,17,315,
scooby_state_1008ee8|26|2 242,7,5,1,3,5,7,4,3,3,4,6,6,3,16,315,
scooby_state_ffffffff7ee008c0|5|0 292,3,2,4,2,2,0,0,0,0,0,1,4,3,2,315,
scooby_state_1008ee8|43|4 152,6,4,6,5,4,8,6,7,4,6,10,78,5,14,315,
scooby_state_ffffffff7ee00a58|53|0 186,3,1,0,2,1,1,1,3,1,2,1,1,1,111,315,
scooby_state_10008a168|2|0 306,0,2,0,1,0,1,0,1,0,0,0,0,0,1,312,
scooby_state_1008ee8|27|3 194,5,6,2,8,4,3,4,5,6,7,47,1,3,17,312,
scooby_state_10008bf78|31|0 300,0,2,0,1,0,2,0,2,0,1,1,0,1,2,312,
scooby_state_ffffffff7ee008c0|58|0 293,1,2,1,1,1,1,1,0,0,3,1,2,0,2,309,
scooby_state_ffffffff7ee008c0|1|0 286,4,2,3,3,1,2,1,0,0,1,2,1,1,2,309,
scooby_state_1008ee8|60|2 230,7,1,7,3,3,9,9,6,1,5,6,4,3,15,309,
scooby_state_10008a168|62|0 288,3,5,0,1,0,0,0,1,1,1,2,3,0,2,307,
scooby_state_10094a0|62|0 200,8,6,3,4,9,4,9,3,6,10,15,12,7,10,306,
scooby_state_1008ee8|54|1 254,5,4,5,6,5,3,2,1,2,4,2,2,3,8,306,
scooby_state_1000d28|4|1 183,2,0,0,2,1,2,0,3,2,0,36,52,18,3,304,
scooby_state_10094a0|61|0 182,4,4,3,7,4,7,6,4,8,13,20,20,9,12,303,
scooby_state_ffffffff7ee008c0|14|0 287,0,1,1,2,0,2,1,0,1,2,2,2,1,0,302,
scooby_state_10008bf70|42|0 278,1,3,1,2,0,1,2,1,1,0,5,1,3,3,302,
scooby_state_1008ee8|17|3 208,1,4,2,9,3,2,2,4,6,2,30,0,7,21,301,
scooby_state_1008ee8|46|1 262,3,3,2,3,1,4,4,1,1,1,5,3,2,5,300,
scooby_state_10008a168|16|0 279,1,2,1,2,0,2,1,0,0,1,2,3,1,4,299,
scooby_state_ffffffff7ee008c0|8|0 287,0,2,0,0,0,0,0,1,0,1,0,1,3,2,297,
scooby_state_1000d28|25|0 280,0,1,0,1,0,0,0,0,0,0,4,4,4,1,295,
scooby_state_1000d28|59|1 163,0,1,2,1,0,2,1,1,4,3,23,63,29,2,295,
scooby_state_10008a168|44|0 287,1,1,0,1,0,1,1,0,0,0,2,0,0,1,295,
scooby_state_ffffffff7e7abf00|60|1 198,21,3,4,1,2,3,2,2,4,4,41,0,4,5,294,
scooby_state_ffffffff7ee008c0|60|0 278,2,1,2,0,1,0,1,2,1,1,1,0,2,0,292,
scooby_state_10014ad64|36|0 282,1,0,1,0,1,1,0,0,0,0,1,3,1,0,291,
scooby_state_1008ee8|32|2 233,5,2,2,2,4,1,2,2,5,3,6,7,7,10,291,
scooby_state_ffffffff7e7bccb4|50|-1 291,0,0,0,0,0,0,0,0,0,0,0,0,0,0,291,
scooby_state_1008ee8|16|2 217,6,5,2,4,5,4,3,3,7,7,4,2,7,14,290,
scooby_state_10013ec80|50|0 190,10,13,8,9,10,4,5,4,7,7,0,3,7,13,290,
scooby_state_10014ae50|57|-3 21,241,10,7,3,1,0,1,0,3,0,0,1,0,0,288,
scooby_state_1008e88|20|1 188,16,3,13,6,12,4,6,4,1,8,4,4,9,10,288,
scooby_state_ffffffff7ee008c0|56|0 272,2,1,3,1,0,2,1,0,0,1,1,2,0,1,287,
scooby_state_10008a168|12|0 270,2,0,1,1,1,0,1,0,3,1,1,1,1,2,285,
scooby_state_1008ee8|15|1 242,5,3,3,2,4,1,4,4,1,2,2,3,3,6,285,
scooby_state_1008ee8|22|1 259,3,1,3,2,1,0,1,1,3,1,1,3,1,5,285,
scooby_state_10014ad64|44|0 278,1,1,0,0,2,0,1,0,0,0,0,0,0,2,285,
scooby_state_1008e70|63|0 20,1,8,1,0,0,0,0,0,0,0,94,102,58,0,284,
scooby_state_1008ee8|52|1 238,3,3,3,2,3,2,3,0,5,4,5,2,3,6,282,
scooby_state_ffffffff7e7a9f00|60|1 187,1,0,0,0,0,2,0,0,2,0,87,0,0,3,282,
scooby_state_1000d28|8|1 171,2,2,2,0,0,2,1,0,5,1,25,49,16,4,280,
scooby_state_1000d28|7|1 170,0,1,0,0,2,0,1,0,1,1,21,56,24,2,279,
scooby_state_1008e88|10|1 173,17,14,6,4,7,7,5,4,5,3,4,5,10,13,277,
scooby_state_1000d28|32|1 159,1,1,1,3,0,1,2,2,0,0,26,51,27,3,277,
scooby_state_1008e88|39|1 170,19,5,7,6,7,7,5,6,4,4,4,11,6,16,277,
scooby_state_1000d28|61|1 158,1,0,1,4,0,0,0,1,1,0,20,61,28,1,276,
scooby_state_1008ee8|57|1 248,1,2,2,1,4,2,1,3,1,0,1,1,2,7,276,
scooby_state_10008a168|4|0 269,1,0,0,0,0,0,1,1,1,0,1,1,1,0,276,
scooby_state_10008a168|57|0 261,3,0,0,2,1,2,2,0,0,1,0,1,2,1,276,
scooby_state_1008ee8|61|3 174,6,0,6,4,3,5,6,3,1,0,36,7,4,21,276,
scooby_state_1008ee8|3|1 247,1,2,2,1,1,1,3,3,0,4,2,1,4,4,276,
scooby_state_1000d28|40|1 145,2,2,2,0,1,2,0,2,1,1,26,67,20,3,274,
scooby_state_10008bf64|36|0 264,0,0,0,1,1,0,0,0,0,0,3,1,1,2,273,
scooby_state_10014af1c|60|1 259,5,1,0,1,2,2,1,0,0,0,0,0,0,2,273,
scooby_state_ffffffff7ee00a58|54|0 162,0,2,0,1,2,0,0,0,2,4,0,1,0,99,273,
scooby_state_1008e88|54|1 168,17,8,6,4,10,4,6,7,3,6,5,6,11,11,272,
scooby_state_1008ee8|33|4 139,6,4,1,10,6,1,5,5,3,5,6,66,3,12,272,
scooby_state_1008e88|34|1 184,12,10,5,4,7,7,0,4,8,6,3,11,4,7,272,
scooby_state_1008ee8|56|1 240,4,0,1,0,2,3,0,0,2,2,3,2,2,9,270,
scooby_state_ffffffff7ee008c0|57|0 257,1,0,0,0,1,1,0,1,0,1,2,1,3,2,270,
scooby_state_1008ee8|42|1 233,6,4,2,3,3,1,2,2,2,1,4,2,0,5,270,
scooby_state_100265e40|57|22 14,38,28,21,11,11,16,11,13,11,12,0,22,27,35,270,
scooby_state_1000d28|9|1 183,1,2,1,1,1,1,0,0,2,1,22,34,18,2,269,
scooby_state_1000d28|3|1 152,2,2,1,0,0,2,2,2,1,3,23,54,20,5,269,
scooby_state_10008a168|58|0 250,3,2,1,2,0,0,3,2,1,0,1,0,1,2,268,
scooby_state_ffffffff7ee008c0|7|0 256,3,0,1,0,0,1,1,1,0,1,0,1,0,3,268,
scooby_state_10008a168|31|0 265,0,0,1,0,0,0,0,0,0,0,1,1,0,0,268,
scooby_state_10008a168|11|0 259,0,1,0,0,1,1,1,0,2,0,1,1,0,1,268,
scooby_state_ffffffff7ee008c0|55|0 251,3,2,2,1,0,1,1,0,1,1,0,2,1,2,268,
scooby_state_10014ad64|16|0 253,0,0,0,1,2,0,3,1,2,2,0,0,2,1,267,
scooby_state_1000d28|5|1 158,0,2,0,0,0,0,0,4,2,1,38,41,19,2,267,
scooby_state_10014ad64|26|0 255,1,1,0,2,0,0,1,1,1,1,0,2,0,2,267,
scooby_state_10008bf64|62|0 260,0,0,0,0,1,2,1,0,0,0,2,0,0,1,267,
scooby_state_1000d28|41|1 149,4,1,0,4,1,1,1,0,0,0,28,62,15,1,267,
scooby_state_10008a168|47|0 255,1,1,0,0,1,0,2,0,2,1,1,1,1,1,267,
scooby_state_10008bf70|13|0 241,0,3,3,5,1,1,2,0,0,0,6,1,2,1,266,
scooby_state_10008a168|55|0 255,3,1,0,1,1,1,0,1,0,0,1,0,1,0,265,
scooby_state_1000d28|6|1 170,0,2,3,1,2,0,0,1,1,0,26,50,8,1,265,
scooby_state_10094a0|60|0 183,3,7,2,7,4,2,1,5,4,9,12,13,5,7,264,
scooby_state_1008ee8|8|1 236,3,3,0,0,3,3,3,0,1,1,3,0,4,4,264,
scooby_state_1000d28|24|1 148,2,1,1,4,2,3,2,0,2,1,29,54,13,1,263,
scooby_state_1000d28|1|1 167,2,0,0,2,3,1,0,1,2,2,26,41,15,1,263,
scooby_state_10008a168|5|0 251,1,1,1,0,1,0,0,1,1,0,3,2,0,1,263,
scooby_state_1000d28|35|0 247,1,0,1,1,1,0,0,2,0,0,3,2,2,3,263,
scooby_state_1000d28|57|1 160,1,3,1,3,0,2,1,1,2,0,25,47,14,2,262,
scooby_state_1000d28|62|1 154,0,0,2,0,1,0,1,1,3,2,19,58,21,0,262,
scooby_state_1000d28|11|1 167,1,0,2,0,0,1,0,0,2,0,23,48,16,2,262,
scooby_state_10008a168|26|0 258,0,1,0,0,1,0,0,0,0,0,1,1,0,0,262,
scooby_state_10008a168|6|0 245,2,0,2,2,1,1,1,1,0,1,2,1,1,1,261,
scooby_state_10008bf70|23|0 241,2,3,0,1,0,1,1,0,1,0,5,0,1,5,261,
scooby_state_1008e88|24|1 150,22,10,7,8,10,7,5,7,8,3,1,4,8,11,261,
scooby_state_1008ee8|17|1 229,0,4,1,3,2,1,3,4,0,3,1,2,2,6,261,
scooby_state_10008bf78|15|0 248,1,1,2,2,0,0,0,1,2,0,2,1,0,1,261,
scooby_state_ffffffff7ee008c0|11|0 247,1,0,2,0,1,2,0,0,0,1,1,3,3,0,261,
scooby_state_10008a168|46|0 245,1,1,2,0,1,0,3,1,1,1,0,1,1,2,260,
scooby_state_1008e88|59|1 169,16,7,8,10,3,6,4,7,3,2,3,3,9,10,260,
scooby_state_1000d28|10|1 163,2,0,1,1,0,0,0,0,0,0,22,47,21,3,260,
scooby_state_1000d28|49|1 153,0,1,2,1,1,2,1,4,2,1,24,45,20,3,260,
scooby_state_ffffffff7ee008c0|13|0 252,2,0,1,1,0,1,0,0,0,0,1,1,0,0,259,
scooby_state_1000d28|58|1 154,0,1,1,1,0,0,3,1,3,3,18,57,15,2,259,
scooby_state_1008ee8|18|4 135,4,2,1,7,5,5,7,5,6,2,11,50,7,11,258,
scooby_state_1000d28|31|1 137,0,0,3,4,0,0,3,1,0,1,16,63,26,4,258,
scooby_state_10008bf64|16|0 251,1,0,0,1,0,0,0,2,0,1,0,0,2,0,258,
scooby_state_10014ad64|58|0 239,0,3,0,0,1,1,2,3,3,2,1,0,2,1,258,
scooby_state_10008bf64|22|0 242,0,0,2,0,1,1,0,4,3,1,0,1,0,3,258,
scooby_state_1000d28|20|1 141,1,1,0,2,3,1,2,2,2,0,22,52,25,3,257,
scooby_state_1000d28|33|1 144,0,0,1,3,2,1,0,0,3,0,28,44,27,3,256,
scooby_state_ffffffff7e784c8c|50|-1 152,5,6,4,4,5,2,7,5,5,2,44,4,3,8,256,
scooby_state_1008ee8|37|1 227,1,5,3,1,2,3,0,2,0,1,3,0,4,4,256,
scooby_state_10014ad64|57|0 243,2,1,1,1,0,1,0,0,1,1,1,0,0,3,255,
scooby_state_10008a168|60|0 246,0,1,0,0,0,1,2,0,1,0,1,0,0,3,255,
scooby_state_1000d28|63|1 156,0,1,1,1,0,0,2,0,3,1,14,55,18,3,255,
scooby_state_10014ad64|33|0 245,1,1,4,0,0,0,1,0,0,1,0,1,0,1,255,
scooby_state_10014ad70|44|0 248,0,0,0,0,0,1,0,1,3,1,0,0,0,1,255,
scooby_state_ffffffff7ee008c0|17|0 243,1,1,1,1,0,0,0,1,0,1,1,2,1,2,255,
scooby_state_10008a168|1|0 248,1,1,0,0,1,0,0,2,0,0,0,1,0,1,255,
scooby_state_1008e88|25|1 148,14,9,5,5,6,8,8,8,4,6,1,7,11,14,254,
scooby_state_1000d28|43|1 160,1,0,0,2,0,1,0,0,2,2,18,56,10,2,254,
scooby_state_1000d28|16|1 148,0,0,1,0,1,1,0,1,2,0,25,49,24,2,254,
scooby_state_1000d28|54|1 166,0,3,0,2,3,0,1,0,1,1,18,40,17,2,254,
scooby_state_10014ad64|25|0 234,3,1,3,1,1,0,2,1,1,2,2,1,0,0,252,
scooby_state_1000d28|12|1 145,2,1,1,0,0,0,2,1,1,1,16,59,21,2,252,
scooby_state_1000d28|16|0 242,1,0,0,1,1,0,0,1,2,0,1,1,1,1,252,
scooby_state_1008ee8|28|1 221,3,2,2,5,2,1,1,2,1,3,2,1,1,5,252,
scooby_state_1000d28|39|1 156,0,3,0,1,2,1,0,1,1,3,21,44,17,2,252,
scooby_state_10014ad64|12|0 238,1,0,0,3,1,4,1,0,0,0,0,0,2,2,252,
scooby_state_ffffffff7e7c3e40|57|56 3,5,6,1,1,0,2,6,4,2,2,4,6,206,4,252,
scooby_state_1008ee8|33|3 161,3,4,5,7,5,4,3,2,0,4,33,5,3,13,252,
scooby_state_ffffffff7ee008c0|6|0 237,1,1,1,1,3,0,0,1,0,0,1,2,1,2,251,
scooby_state_1008ee8|7|1 228,1,1,4,0,1,0,0,1,1,0,3,1,2,8,251,
scooby_state_1000d28|56|1 143,1,0,2,0,1,4,0,2,3,1,31,44,18,0,250,
scooby_state_ffffffff7ee008c0|9|0 235,2,1,2,1,0,0,0,0,1,2,0,4,1,1,250,
scooby_state_1000d28|50|1 147,0,1,0,2,0,1,2,1,2,3,31,43,15,2,250,
scooby_state_1000d28|52|1 157,0,2,0,0,2,1,0,1,1,0,23,38,17,7,249,
scooby_state_10008bf78|2|0 234,1,2,0,0,0,1,1,1,1,2,2,0,2,2,249,
scooby_state_10008bf78|60|0 243,0,0,0,1,1,2,0,0,0,0,0,0,1,1,249,
scooby_state_10008bf64|56|0 235,0,0,0,2,3,1,1,0,1,2,3,0,0,1,249,
scooby_state_10008a168|59|0 240,2,1,0,1,1,0,0,0,0,0,0,1,2,0,248,
scooby_state_1000d28|60|1 139,1,0,2,0,1,0,0,1,3,2,21,60,14,3,247,
scooby_state_1000d28|42|1 137,3,3,2,1,1,2,1,1,2,1,27,47,19,0,247,
scooby_state_1000d28|18|1 146,0,1,0,0,0,2,0,0,1,0,26,48,21,2,247,
scooby_state_10014ad70|60|0 224,2,1,1,2,2,1,3,2,1,2,3,0,1,2,247,
scooby_state_1008ee8|62|1 217,0,0,0,2,6,3,0,0,2,1,2,2,5,6,246,
scooby_state_10008a168|21|0 237,1,1,0,1,0,1,0,0,0,2,1,1,1,0,246,
scooby_state_ffffffff7e7c305c|1|-50 192,5,2,1,7,5,7,7,4,6,4,0,1,2,3,246,
scooby_state_1008e88|15|1 152,11,10,6,5,5,5,12,6,6,7,1,4,2,13,245,
scooby_state_1000d28|55|1 155,0,3,2,0,2,1,1,0,3,1,23,38,13,2,244,
scooby_state_10008a168|48|0 232,1,0,0,2,1,1,1,1,0,0,0,1,0,3,243,
scooby_state_1000d28|25|1 131,1,1,0,2,0,0,0,2,1,0,33,46,25,1,243,
scooby_state_1000d28|22|1 138,0,2,1,5,4,3,0,0,1,1,21,57,9,1,243,
scooby_state_10008a168|20|0 233,1,0,0,1,1,1,0,0,0,2,1,0,2,0,242,
scooby_state_1000d28|46|1 142,3,1,1,0,0,2,1,0,0,1,13,53,24,1,242,
scooby_state_ffffffff7ee008c0|16|0 228,1,2,1,0,1,0,0,0,1,1,3,0,3,0,241,
scooby_state_10008bf64|17|0 228,1,1,1,0,0,1,0,1,1,1,0,2,1,2,240,
scooby_state_1008ee8|33|1 214,1,2,3,0,2,2,1,1,1,1,1,2,2,7,240,
scooby_state_10008bf90|1|0 207,0,2,2,1,0,2,6,1,4,0,3,5,2,5,240,
scooby_state_10014ad64|40|0 224,1,3,1,0,0,0,1,2,3,0,2,0,1,2,240,
scooby_state_10008a168|7|0 235,2,0,0,0,0,1,0,0,0,0,0,0,1,1,240,
scooby_state_1008ee8|47|1 212,1,3,3,1,1,1,3,0,2,1,1,3,2,6,240,
scooby_state_10014ad64|28|0 225,0,2,1,1,2,2,1,1,1,0,1,0,0,3,240,
scooby_state_1000d28|53|1 132,0,1,2,1,3,0,0,1,1,1,27,51,16,4,240,
scooby_state_1000d28|27|1 121,4,1,1,0,1,0,0,1,2,1,25,68,15,0,240,
scooby_state_1008ee8|51|1 216,1,2,0,0,2,3,1,0,1,3,1,1,1,8,240,
scooby_state_10008a168|56|0 225,2,0,1,2,2,0,1,1,0,0,3,2,0,0,239,
scooby_state_1000d28|44|1 125,3,0,0,0,0,1,1,0,1,1,16,66,23,1,238,
scooby_state_1000d28|19|1 148,0,1,1,0,0,2,0,3,2,0,22,39,18,2,238,
[...]
scooby_state_100140a58|14|1 0,0,0,0,0,0,0,0,0,0,0,0,0,1,0,1,
scooby_state_100134ea8|57|-1 1,0,0,0,0,0,0,0,0,0,0,0,0,0,0,1,
scooby_state_1001924|55|1 0,0,0,0,0,0,0,0,0,0,0,0,0,0,1,1,
scooby_state_ffffffff7e03b6cc|23|-37 1,0,0,0,0,0,0,0,0,0,0,0,0,0,0,1,
scooby_state_100140a58|51|16 0,0,0,0,0,1,0,0,0,0,0,0,0,0,0,1,
scooby_state_ffffffff7e7da37c|13|1 1,0,0,0,0,0,0,0,0,0,0,0,0,0,0,1,
scooby_state_10014a66c|25|16 1,0,0,0,0,0,0,0,0,0,0,0,0,0,0,1,
scooby_state_ffffffff7ee00a84|24|3 0,0,0,0,0,0,0,0,0,0,0,1,0,0,0,1,
scooby_state_ffffffff7ee00a84|22|2 0,0,0,0,0,0,0,0,0,0,0,1,0,0,0,1,
scooby_state_ffffffff7ee00a84|26|4 0,0,0,0,0,0,0,0,0,0,0,1,0,0,0,1,
scooby_state_ffffffff7ee00a54|63|18 0,0,1,0,0,0,0,0,0,0,0,0,0,0,0,1,
scooby_state_ffffffff7e03b6cc|42|4 0,0,0,1,0,0,0,0,0,0,0,0,0,0,0,1,
scooby_state_ffffffff7ee00a84|13|2 0,0,0,0,0,0,0,0,0,0,0,1,0,0,0,1,
scooby_state_ffffffff7ee00a84|20|3 0,0,0,0,0,0,0,0,0,0,0,1,0,0,0,1,
scooby_state_100140a58|31|-24 0,0,0,0,0,0,0,0,0,0,0,0,0,1,0,1,
scooby_state_ffffffff7ee00a84|59|4 0,0,0,0,0,0,0,0,0,0,0,1,0,0,0,1,
scooby_state_ffffffff7ee00a84|42|2 0,0,0,0,0,0,0,0,0,0,0,1,0,0,0,1,
scooby_state_ffffffff7ee009fc|39|-19 1,0,0,0,0,0,0,0,0,0,0,0,0,0,0,1,
scooby_state_ffffffff7ee00a84|10|2 0,0,0,0,0,0,0,0,0,0,0,1,0,0,0,1,
scooby_state_ffffffff7ee00a84|15|3 0,0,0,0,0,0,0,0,0,0,0,1,0,0,0,1,
scooby_state_10008a168|12|-9 0,0,0,0,0,0,0,1,0,0,0,0,0,0,0,1,
scooby_state_104afe4|13|-7 0,0,0,0,0,0,0,0,0,0,0,0,0,0,1,1,
scooby_state_ffffffff7ee00a84|30|2 0,0,0,0,0,0,0,0,0,0,0,1,0,0,0,1,
scooby_state_ffffffff7ee00a84|33|3 0,0,0,0,0,0,0,0,0,0,0,1,0,0,0,1,
scooby_state_ffffffff7ee00a84|42|3 0,0,0,0,0,0,0,0,0,0,0,1,0,0,0,1,
scooby_state_ffffffff7ee00a84|51|3 0,0,0,0,0,0,0,0,0,0,0,1,0,0,0,1,
scooby_state_ffffffff7ee00a84|57|2 0,0,0,0,0,0,0,0,0,0,0,1,0,0,0,1,
scooby_state_ffffffff7ee00a84|5|3 0,0,0,0,0,0,0,0,0,0,0,1,0,0,0,1,
scooby_state_ffffffff7ee00a84|9|2 0,0,0,0,0,0,0,0,0,0,0,1,0,0,0,1,
scooby_state_ffffffff7ee00a84|23|3 0,0,0,0,0,0,0,0,0,0,0,1,0,0,0,1,
scooby_state_ffffffff7ee00a84|27|2 0,0,0,0,0,0,0,0,0,0,0,1,0,0,0,1,
scooby_state_ffffffff7ee00a84|15|2 0,0,0,0,0,0,0,0,0,0,0,1,0,0,0,1,
scooby_state_100140a58|23|13 0,0,0,0,1,0,0,0,0,0,0,0,0,0,0,1,
scooby_state_ffffffff7ee00a84|27|15 0,0,0,0,0,0,0,0,0,0,0,1,0,0,0,1,
scooby_state_1007580|22|1 0,0,0,0,0,0,0,1,0,0,0,0,0,0,0,1,
scooby_state_ffffffff7e03b6cc|11|-24 0,0,0,0,0,0,0,1,0,0,0,0,0,0,0,1,
scooby_state_ffffffff7e03b6cc|43|-8 0,0,0,0,0,0,0,0,0,0,0,1,0,0,0,1,
scooby_state_100140a7c|40|0 0,0,0,0,0,0,0,0,0,0,0,0,0,1,0,1,
scooby_state_10076a4|26|3 1,0,0,0,0,0,0,0,0,0,0,0,0,0,0,1,
scooby_state_ffffffff7e03b6cc|12|-2 0,0,0,0,0,0,0,0,0,0,0,0,0,0,1,1,
scooby_state_ffffffff7e03b6cc|32|4 0,0,0,0,0,0,1,0,0,0,0,0,0,0,0,1,
scooby_state_ffffffff7e03b6cc|5|-2 1,0,0,0,0,0,0,0,0,0,0,0,0,0,0,1,
scooby_state_100140a48|8|-28 0,0,0,1,0,0,0,0,0,0,0,0,0,0,0,1,
scooby_state_104af7c|61|-2 1,0,0,0,0,0,0,0,0,0,0,0,0,0,0,1,
scooby_state_10014a1fc|22|-31 0,0,0,0,0,0,0,0,0,0,0,1,0,0,0,1,
scooby_state_ffffffff7e03b6cc|0|-21 0,0,0,0,0,0,0,0,0,0,0,0,0,1,0,1,
scooby_state_10014a1fc|42|32 1,0,0,0,0,0,0,0,0,0,0,0,0,0,0,1,
scooby_state_ffffffff7e03b6cc|26|-5 0,0,0,0,0,0,0,0,0,0,0,0,0,1,0,1,
scooby_state_ffffffff7e03b6cc|37|-1 0,0,0,0,0,0,0,0,0,0,0,1,0,0,0,1,
scooby_state_104afe4|29|2 0,0,0,0,0,0,0,0,0,0,0,0,0,0,1,1,
scooby_state_1000d28|40|6 1,0,0,0,0,0,0,0,0,0,0,0,0,0,0,1,
scooby_state_10297d8|19|0 1,0,0,0,0,0,0,0,0,0,0,0,0,0,0,1,
scooby_state_10dd384|40|0 0,0,0,0,0,0,0,0,1,0,0,0,0,0,0,1,
scooby_state_ffffffff7e03b6cc|49|20 1,0,0,0,0,0,0,0,0,0,0,0,0,0,0,1,
scooby_state_10014b2bc|10|-19 1,0,0,0,0,0,0,0,0,0,0,0,0,0,0,1,
scooby_state_10014a1fc|27|-23 0,0,0,0,0,0,0,0,0,0,0,1,0,0,0,1,
scooby_state_100140a58|40|-4 0,0,0,0,0,0,0,0,0,0,0,1,0,0,0,1,
scooby_state_1130c80|50|7 1,0,0,0,0,0,0,0,0,0,0,0,0,0,0,1,
scooby_state_10014a29c|24|0 1,0,0,0,0,0,0,0,0,0,0,0,0,0,0,1,
scooby_state_ffffffff7e03b6cc|33|8 1,0,0,0,0,0,0,0,0,0,0,0,0,0,0,1,
scooby_state_ffffffff7e03b6cc|46|44 0,0,0,0,0,0,0,1,0,0,0,0,0,0,0,1,
scooby_state_10008a17c|20|15 1,0,0,0,0,0,0,0,0,0,0,0,0,0,0,1,
scooby_state_10014b20c|54|-2 0,0,0,1,0,0,0,0,0,0,0,0,0,0,0,1,
scooby_state_ffffffff7e03b6cc|26|-1 0,0,0,1,0,0,0,0,0,0,0,0,0,0,0,1,
scooby_state_104afe4|21|2 0,0,0,0,0,0,0,0,0,0,0,0,0,0,1,1,
scooby_state_ffffffff7e03b6cc|47|18 0,0,0,0,1,0,0,0,0,0,0,0,0,0,0,1,
scooby_state_ffffffff7e03b6cc|41|32 0,0,0,0,0,0,0,0,0,0,0,0,0,0,1,1,
scooby_state_10014ad88|56|52 0,0,0,0,0,0,0,1,0,0,0,0,0,0,0,1,
scooby_state_104afe4|30|2 0,0,0,0,0,0,0,0,0,0,0,0,0,0,1,1,
scooby_state_10014ad70|42|-8 0,0,0,0,0,1,0,0,0,0,0,0,0,0,0,1,
scooby_state_10008c0cc|9|-30 0,0,0,0,1,0,0,0,0,0,0,0,0,0,0,1,
scooby_state_1082c48|25|6 0,0,1,0,0,0,0,0,0,0,0,0,0,0,0,1,
scooby_state_1001950|45|1 1,0,0,0,0,0,0,0,0,0,0,0,0,0,0,1,
scooby_state_107be00|56|2 1,0,0,0,0,0,0,0,0,0,0,0,0,0,0,1,
scooby_state_ffffffff7e03b6cc|47|7 0,0,0,0,1,0,0,0,0,0,0,0,0,0,0,1,
scooby_state_ffffffff7ee00a84|20|4 0,0,0,0,0,0,0,0,0,0,0,1,0,0,0,1,
scooby_state_ffffffff7ee00a84|39|4 0,0,0,0,0,0,0,0,0,0,0,1,0,0,0,1,
scooby_state_ffffffff7e03b6cc|19|6 0,0,0,0,0,1,0,0,0,0,0,0,0,0,0,1,
scooby_state_1000d28|24|-30 1,0,0,0,0,0,0,0,0,0,0,0,0,0,0,1,
scooby_state_1001a4c|38|1 0,0,0,0,0,0,0,0,0,0,0,0,0,1,0,1,
scooby_state_ffffffff7e03b6cc|4|-19 0,0,0,0,0,0,0,0,1,0,0,0,0,0,0,1,
scooby_state_ffffffff7ee00e98|58|3 1,0,0,0,0,0,0,0,0,0,0,0,0,0,0,1,
scooby_state_1000d28|61|45 0,0,0,0,0,0,0,0,0,0,0,0,0,0,1,1,
scooby_state_114b20c|8|1 0,0,0,0,0,0,0,0,0,0,0,1,0,0,0,1,
scooby_state_10014ad2c|47|0 1,0,0,0,0,0,0,0,0,0,0,0,0,0,0,1,
scooby_state_ffffffff7e03b6cc|47|2 0,0,0,0,0,0,0,0,0,0,0,0,0,0,1,1,
scooby_state_ffffffff7e03b6cc|58|31 0,0,0,0,0,0,0,0,1,0,0,0,0,0,0,1,
scooby_state_11fcae8|14|0 1,0,0,0,0,0,0,0,0,0,0,0,0,0,0,1,
scooby_state_1008ee8|3|0 0,0,0,0,0,0,0,0,0,0,0,1,0,0,0,1,
scooby_state_ffffffff7e03b6cc|16|-18 1,0,0,0,0,0,0,0,0,0,0,0,0,0,0,1,
scooby_state_ffffffff7ee00a6c|51|11 1,0,0,0,0,0,0,0,0,0,0,0,0,0,0,1,
scooby_state_ffffffff7e03b6cc|21|-15 1,0,0,0,0,0,0,0,0,0,0,0,0,0,0,1,
scooby_state_10014ad80|1|-11 0,0,0,0,0,0,0,0,0,1,0,0,0,0,0,1,
scooby_state_1001954|14|0 0,0,0,0,1,0,0,0,0,0,0,0,0,0,0,1,
scooby_state_1000d28|28|-24 0,0,0,0,0,0,0,0,0,0,0,1,0,0,0,1,
scooby_state_1000d28|40|11 0,0,0,0,0,0,0,0,0,0,0,0,1,0,0,1,
scooby_state_ffffffff7e03b6cc|29|-21 0,0,1,0,0,0,0,0,0,0,0,0,0,0,0,1,
scooby_state_ffffffff7ee00a54|49|13 0,0,0,0,0,1,0,0,0,0,0,0,0,0,0,1,
scooby_state_ffffffff7ee00a58|44|-5 0,0,0,0,0,0,0,0,0,0,0,0,1,0,0,1,
scooby_state_104afe4|38|1 0,0,0,0,0,0,0,1,0,0,0,0,0,0,0,1,
scooby_state_1001944|16|1 1,0,0,0,0,0,0,0,0,0,0,0,0,0,0,1,
scooby_state_1000d28|34|33 1,0,0,0,0,0,0,0,0,0,0,0,0,0,0,1,
scooby_state_100190c|12|5 0,0,0,0,0,0,0,0,0,1,0,0,0,0,0,1,
scooby_state_1008ec0|0|-1 0,0,0,1,0,0,0,0,0,0,0,0,0,0,0,1,
scooby_state_ffffffff7e03b6cc|2|-8 0,0,0,0,0,0,0,0,0,0,0,1,0,0,0,1,
scooby_state_1008ec0|0|-3 0,0,0,0,0,0,0,1,0,0,0,0,0,0,0,1,
scooby_state_ffffffff7e400e58|2|1 0,0,0,0,0,0,0,0,0,0,0,1,0,0,0,1,
scooby_state_ffffffff7e03b6cc|31|-18 1,0,0,0,0,0,0,0,0,0,0,0,0,0,0,1,
scooby_state_1002658e0|35|3 1,0,0,0,0,0,0,0,0,0,0,0,0,0,0,1,
scooby_state_1000d28|0|-43 0,0,0,0,1,0,0,0,0,0,0,0,0,0,0,1,
scooby_state_1001940|47|1 0,0,1,0,0,0,0,0,0,0,0,0,0,0,0,1,
scooby_state_ffffffff7ee00a54|40|17 1,0,0,0,0,0,0,0,0,0,0,0,0,0,0,1,
scooby_state_100136d10|44|-9 0,0,0,0,0,0,0,0,0,0,0,0,1,0,0,1,
scooby_state_1000d28|51|32 0,0,0,0,0,0,1,0,0,0,0,0,0,0,0,1,
scooby_state_1000d28|35|-16 0,0,0,0,0,0,0,0,0,0,0,0,0,0,1,1,
scooby_state_100140a58|39|17 1,0,0,0,0,0,0,0,0,0,0,0,0,0,0,1,
scooby_state_100140a58|43|13 1,0,0,0,0,0,0,0,0,0,0,0,0,0,0,1,
scooby_state_ffffffff7ee00a84|51|8 1,0,0,0,0,0,0,0,0,0,0,0,0,0,0,1,
scooby_state_100140a58|1|-4 1,0,0,0,0,0,0,0,0,0,0,0,0,0,0,1,
scooby_state_ffffffff7e03b6cc|15|10 0,0,0,0,0,0,0,0,1,0,0,0,0,0,0,1,
scooby_state_10008a168|44|11 0,1,0,0,0,0,0,0,0,0,0,0,0,0,0,1,
scooby_state_ffffffff7ee00d58|39|0 0,0,0,0,0,0,0,0,0,0,0,1,0,0,0,1,
scooby_state_ffffffff7ee00a54|51|24 0,0,0,0,0,0,0,0,0,0,0,0,1,0,0,1,
scooby_state_10008bf64|27|-26 0,0,0,0,0,1,0,0,0,0,0,0,0,0,0,1,
scooby_state_1000d28|54|19 0,0,1,0,0,0,0,0,0,0,0,0,0,0,0,1,
scooby_state_ffffffff7e03b6cc|15|-4 1,0,0,0,0,0,0,0,0,0,0,0,0,0,0,1,
scooby_state_10014a1fc|21|16 1,0,0,0,0,0,0,0,0,0,0,0,0,0,0,1,
scooby_state_ffffffff7e03b6cc|28|9 0,0,0,1,0,0,0,0,0,0,0,0,0,0,0,1,
scooby_state_ffffffff7e03b6cc|19|-36 0,0,0,0,0,0,0,0,0,0,0,1,0,0,0,1,
scooby_state_1000d28|51|31 0,0,0,0,0,0,0,0,0,0,0,0,0,1,0,1,
scooby_state_ffffffff7e03b6cc|31|11 0,0,0,1,0,0,0,0,0,0,0,0,0,0,0,1,
scooby_state_1000d28|42|25 0,0,0,0,0,0,0,0,0,0,0,0,0,1,0,1,
scooby_state_100140a58|32|-24 1,0,0,0,0,0,0,0,0,0,0,0,0,0,0,1,
scooby_state_100140a58|33|13 1,0,0,0,0,0,0,0,0,0,0,0,0,0,0,1,
scooby_state_100140a58|30|-17 0,0,0,0,0,0,0,1,0,0,0,0,0,0,0,1,
scooby_state_10014ad80|11|0 1,0,0,0,0,0,0,0,0,0,0,0,0,0,0,1,
scooby_state_10014b74c|29|7 1,0,0,0,0,0,0,0,0,0,0,0,0,0,0,1,
scooby_state_10014b20c|31|-6 0,0,0,1,0,0,0,0,0,0,0,0,0,0,0,1,
scooby_state_1000d28|38|17 1,0,0,0,0,0,0,0,0,0,0,0,0,0,0,1,
scooby_state_ffffffff7e03b6cc|17|-10 0,0,1,0,0,0,0,0,0,0,0,0,0,0,0,1,
scooby_state_ffffffff7ee008e0|47|-10 0,0,0,0,0,0,0,0,0,0,0,0,0,0,1,1,
scooby_state_1001940|27|16 1,0,0,0,0,0,0,0,0,0,0,0,0,0,0,1,
scooby_state_1000cc0|51|32 0,0,0,0,0,0,0,0,0,0,0,1,0,0,0,1,
scooby_state_10008a17c|37|8 1,0,0,0,0,0,0,0,0,0,0,0,0,0,0,1,
scooby_state_100190c|17|9 0,0,1,0,0,0,0,0,0,0,0,0,0,0,0,1,
scooby_state_10014a6c0|27|26 1,0,0,0,0,0,0,0,0,0,0,0,0,0,0,1,
scooby_state_ffffffff7e8e7b40|45|5 1,0,0,0,0,0,0,0,0,0,0,0,0,0,0,1,
scooby_state_10014ad70|39|-19 0,0,0,0,0,0,0,0,0,0,0,0,1,0,0,1,
scooby_state_ffffffff7e03b6cc|13|-25 0,0,0,0,1,0,0,0,0,0,0,0,0,0,0,1,
scooby_state_ffffffff7e03b6cc|38|-14 1,0,0,0,0,0,0,0,0,0,0,0,0,0,0,1,
scooby_state_ffffffff7e03b6cc|23|-17 0,0,0,0,1,0,0,0,0,0,0,0,0,0,0,1,
scooby_state_ffffffff7e0cf9d0|39|23 1,0,0,0,0,0,0,0,0,0,0,0,0,0,0,1,
scooby_state_ffffffff7e7dec2c|45|-1 0,0,0,0,0,0,0,0,0,0,0,0,0,0,1,1,
scooby_state_ffffffff7e03b6cc|62|7 0,0,0,0,0,0,1,0,0,0,0,0,0,0,0,1,
scooby_state_1000d28|38|-13 0,0,0,0,0,0,0,0,0,0,0,0,1,0,0,1,
scooby_state_10014a1fc|48|24 1,0,0,0,0,0,0,0,0,0,0,0,0,0,0,1,
scooby_state_ffffffff7ee00a54|9|8 0,0,0,1,0,0,0,0,0,0,0,0,0,0,0,1,
scooby_state_ffffffff7e03b6cc|16|-28 1,0,0,0,0,0,0,0,0,0,0,0,0,0,0,1,
scooby_state_104afe4|12|1 0,0,0,0,0,0,0,1,0,0,0,0,0,0,0,1,
scooby_state_1000d28|4|-32 0,0,0,0,0,0,0,0,1,0,0,0,0,0,0,1,
scooby_state_12987d8|31|-8 1,0,0,0,0,0,0,0,0,0,0,0,0,0,0,1,
scooby_state_ffffffff7e03b6cc|40|-2 1,0,0,0,0,0,0,0,0,0,0,0,0,0,0,1,
scooby_state_ffffffff7e03b6cc|8|-39 0,0,0,0,0,0,0,0,0,0,0,1,0,0,0,1,
scooby_state_ffffffff7ee00a84|9|8 1,0,0,0,0,0,0,0,0,0,0,0,0,0,0,1,
scooby_state_1000d28|49|35 0,0,0,0,0,1,0,0,0,0,0,0,0,0,0,1,
scooby_state_ffffffff7e03b6cc|63|23 1,0,0,0,0,0,0,0,0,0,0,0,0,0,0,1,
scooby_state_ffffffff7ee00a84|60|3 0,0,0,0,0,0,0,0,0,0,0,1,0,0,0,1,
scooby_state_10008bf88|13|0 1,0,0,0,0,0,0,0,0,0,0,0,0,0,0,1,
scooby_state_100190c|1|0 0,0,0,0,0,0,0,0,1,0,0,0,0,0,0,1,
scooby_state_ffffffff7e400e98|8|8 0,0,0,0,0,0,0,1,0,0,0,0,0,0,0,1,
scooby_state_1000d28|17|-34 0,0,0,0,0,0,0,0,0,1,0,0,0,0,0,1,
scooby_state_1000d28|0|-17 0,0,0,0,0,0,0,0,0,0,0,0,1,0,0,1,
scooby_state_1000abb18|44|7 1,0,0,0,0,0,0,0,0,0,0,0,0,0,0,1,
scooby_state_100140a58|39|-9 0,0,0,0,0,0,0,1,0,0,0,0,0,0,0,1,
scooby_state_ffffffff7e03b6cc|17|-5 0,0,0,1,0,0,0,0,0,0,0,0,0,0,0,1,
scooby_state_107a780|30|0 1,0,0,0,0,0,0,0,0,0,0,0,0,0,0,1,
scooby_state_1008ee8|2|0 0,0,0,0,0,0,0,0,0,0,0,1,0,0,0,1,
scooby_state_1000d28|28|10 0,0,0,0,0,0,0,0,0,0,0,0,1,0,0,1,
scooby_state_ffffffff7ee00a84|14|3 0,0,0,0,0,0,0,0,0,0,0,1,0,0,0,1,
scooby_state_100140a7c|58|0 0,0,0,0,0,0,0,0,0,0,1,0,0,0,0,1,
scooby_state_1008ec0|15|-2 1,0,0,0,0,0,0,0,0,0,0,0,0,0,0,1,
scooby_state_10014ad70|21|-15 1,0,0,0,0,0,0,0,0,0,0,0,0,0,0,1,
scooby_state_ffffffff7ee00a84|19|15 0,1,0,0,0,0,0,0,0,0,0,0,0,0,0,1,
scooby_state_1000d28|11|-43 1,0,0,0,0,0,0,0,0,0,0,0,0,0,0,1,
scooby_state_1008e88|49|0 0,0,1,0,0,0,0,0,0,0,0,0,0,0,0,1,
scooby_state_1001938|55|7 1,0,0,0,0,0,0,0,0,0,0,0,0,0,0,1,
scooby_state_ffffffff7e03b6cc|22|-7 0,0,0,0,0,1,0,0,0,0,0,0,0,0,0,1,
scooby_state_106bf4c|19|-34 1,0,0,0,0,0,0,0,0,0,0,0,0,0,0,1,
scooby_state_ffffffff7e03b6cc|2|-10 0,0,1,0,0,0,0,0,0,0,0,0,0,0,0,1,
scooby_state_100140a58|14|-8 1,0,0,0,0,0,0,0,0,0,0,0,0,0,0,1,
scooby_state_1001940|16|11 1,0,0,0,0,0,0,0,0,0,0,0,0,0,0,1,
scooby_state_10014ad64|37|25 0,0,0,0,0,0,0,0,0,0,0,1,0,0,0,1,
scooby_state_ffffffff7e03b6cc|29|-2 0,0,0,0,0,1,0,0,0,0,0,0,0,0,0,1,
scooby_state_ffffffff7ee00a84|45|2 0,0,0,0,0,0,0,0,0,0,0,1,0,0,0,1,
scooby_state_1008ec0|5|-1 1,0,0,0,0,0,0,0,0,0,0,0,0,0,0,1,
scooby_state_10008a17c|62|51 0,1,0,0,0,0,0,0,0,0,0,0,0,0,0,1,

scooby_action_0_deg_dist 0,79302,0,0,0,0,0,0,0,0,0,0,0,0,0,0,
scooby_action_-6_deg_dist 0,24326,1515,0,1607,0,674,0,0,0,0,0,0,0,0,0,
scooby_action_4_deg_dist 0,19626,1255,0,2023,0,1401,0,0,0,0,0,0,0,0,0,
scooby_action_1_deg_dist 0,802230,45941,0,32708,0,33633,0,0,0,0,0,0,0,0,0,
scooby_action_30_deg_dist 0,9403,9,0,6,0,0,0,0,0,0,0,0,0,0,0,
scooby_action_3_deg_dist 0,22456,90,0,22,0,0,0,0,0,0,0,0,0,0,0,
scooby_action_32_deg_dist 0,10375,16,0,10,0,22,0,0,0,0,0,0,0,0,0,
scooby_action_5_deg_dist 0,17490,45,0,43,0,127,0,0,0,0,0,0,0,0,0,
scooby_action_10_deg_dist 0,16370,632,0,738,0,1197,0,0,0,0,0,0,0,0,0,
scooby_action_11_deg_dist 0,12791,21,0,10,0,0,0,0,0,0,0,0,0,0,0,
scooby_action_23_deg_dist 0,15807,9,0,4,0,0,0,0,0,0,0,0,0,0,0,
scooby_action_-1_deg_dist 0,115241,2444,0,2247,0,1199,0,0,0,0,0,0,0,0,0,
scooby_action_12_deg_dist 0,12271,65,0,81,0,617,0,0,0,0,0,0,0,0,0,
scooby_action_22_deg_dist 0,12606,113,0,250,0,2142,0,0,0,0,0,0,0,0,0,
scooby_action_-3_deg_dist 0,34258,4574,0,6279,0,5693,0,0,0,0,0,0,0,0,0,

scooby_track_called 1354014
scooby_track_same_address 307764
scooby_track_evict 1045994

scooby_reward_demand_called 1354014
scooby_reward_demand_pt_not_found 1075355
scooby_reward_demand_pt_found 278659
scooby_reward_demand_pt_found_total 278659
scooby_reward_demand_has_reward 108376
scooby_reward_train_called 829329
scooby_reward_assign_reward_called 1046029
scooby_reward_no_pref 79302
scooby_reward_incorrect 750027
scooby_reward_correct_untimely 95914
scooby_reward_correct_timely 74369
scooby_reward_out_of_bounds 46417
scooby_reward_tracker_hit 0

scooby_reward_none_low_bw 79302
scooby_reward_none_high_bw 0
scooby_reward_incorrect_low_bw 750027
scooby_reward_incorrect_high_bw 0
scooby_reward_correct_untimely_low_bw 95914
scooby_reward_correct_untimely_high_bw 0
scooby_reward_correct_timely_low_bw 74369
scooby_reward_correct_timely_high_bw 0
scooby_reward_out_of_bounds_low_bw 46417
scooby_reward_out_of_bounds_high_bw 0
scooby_reward_tracker_hit_low_bw 0
scooby_reward_tracker_hit_high_bw 0

scooby_reward_1 0,591152,64967,44221,12681,0,
scooby_reward_3 0,14763,2185,1235,754,0,
scooby_reward_4 0,14109,2801,2828,1467,0,
scooby_reward_5 0,10828,1367,508,1305,0,
scooby_reward_10 0,9648,2922,1087,2797,0,
scooby_reward_11 0,7710,153,322,2053,0,
scooby_reward_12 0,7423,552,400,2372,0,
scooby_reward_22 0,5850,695,1225,4747,0,
scooby_reward_23 0,5430,1064,109,3675,0,
scooby_reward_30 0,3790,34,108,4391,0,
scooby_reward_32 0,3780,35,470,4993,0,
scooby_reward_-1 0,30648,13136,6270,687,0,
scooby_reward_-3 0,28398,4397,10791,2230,0,
scooby_reward_-6 0,16498,1606,4795,2265,0,
scooby_reward_0 79302,0,0,0,0,0,

scooby_train_called 1045993
scooby_train_compute_reward 829329

scooby_register_fill_called 751046
scooby_register_fill_set 628976
scooby_register_fill_set_total 628976

scooby_register_prefetch_hit_called 476805
scooby_register_prefetch_hit_set 331235
scooby_register_prefetch_hit_set_total 331235

scooby_pref_issue_scooby 1262318

learning_engine_featurewise.action.called 1354014
learning_engine_featurewise.action.explore 2497
learning_engine_featurewise.action.exploit 1351517
learning_engine_featurewise.action.fallback 754308
learning_engine_featurewise.action.dyn_fallback_saved_bw 0
learning_engine_featurewise.action.dyn_fallback_saved_bw_acc 191073
learning_engine_featurewise.action.index_1_explored 159
learning_engine_featurewise.action.index_1_exploited 914353
learning_engine_featurewise.action.index_3_explored 183
learning_engine_featurewise.action.index_3_exploited 22385
learning_engine_featurewise.action.index_4_explored 171
learning_engine_featurewise.action.index_4_exploited 24134
learning_engine_featurewise.action.index_5_explored 157
learning_engine_featurewise.action.index_5_exploited 17548
learning_engine_featurewise.action.index_10_explored 190
learning_engine_featurewise.action.index_10_exploited 18747
learning_engine_featurewise.action.index_11_explored 153
learning_engine_featurewise.action.index_11_exploited 12669
learning_engine_featurewise.action.index_12_explored 169
learning_engine_featurewise.action.index_12_exploited 12865
learning_engine_featurewise.action.index_22_explored 176
learning_engine_featurewise.action.index_22_exploited 14935
learning_engine_featurewise.action.index_23_explored 170
learning_engine_featurewise.action.index_23_exploited 15650
learning_engine_featurewise.action.index_30_explored 172
learning_engine_featurewise.action.index_30_exploited 9246
learning_engine_featurewise.action.index_32_explored 148
learning_engine_featurewise.action.index_32_exploited 10275
learning_engine_featurewise.action.index_-1_explored 164
learning_engine_featurewise.action.index_-1_exploited 120967
learning_engine_featurewise.action.index_-3_explored 164
learning_engine_featurewise.action.index_-3_exploited 50640
learning_engine_featurewise.action.index_-6_explored 151
learning_engine_featurewise.action.index_-6_exploited 27971
learning_engine_featurewise.action.index_0_explored 170
learning_engine_featurewise.action.index_0_exploited 79132
learning_engine_featurewise.learn.called 1045993
learning_engine_featurewise.learn.su_skip_PC 0
learning_engine_featurewise.learn.su_skip_PC_Delta 0

learning_engine_featurewise.q_value_histogram.bucket_0 152037
learning_engine_featurewise.q_value_histogram.bucket_1 18010
learning_engine_featurewise.q_value_histogram.bucket_2 864530
learning_engine_featurewise.q_value_histogram.bucket_3 92795
learning_engine_featurewise.q_value_histogram.bucket_4 70494
learning_engine_featurewise.q_value_histogram.bucket_5 123443
learning_engine_featurewise.q_value_histogram.bucket_6 30208
learning_engine_featurewise.q_value_histogram.bucket_7 0

learning_engine_featurewise.consensus.total 1351517
learning_engine_featurewise.consensus.feature_align_PC 1082692
learning_engine_featurewise.consensus.feature_align_PC_ratio 0.80
learning_engine_featurewise.consensus.feature_align_PC_Delta 1082603
learning_engine_featurewise.consensus.feature_align_PC_Delta_ratio 0.80
learning_engine_featurewise.consensus.feature_align_all 961277
learning_engine_featurewise.consensus.feature_align_all_ratio 0.71

learning_engine_featurewise.feature_PC_min_weight 1000000.00000000
learning_engine_featurewise.feature_PC_max_weight 0.00000000
learning_engine_featurewise.feature_PC_Delta_min_weight 1000000.00000000
learning_engine_featurewise.feature_PC_Delta_max_weight 0.00000000
unique_pcs 2398
unique_pages 71813
unique_trigger_pcs 895
total_bitmaps_seen 0
unique_bitmaps_seen 0

scooby_bw_epochs 2769529
scooby_bw_level_0 2648495
scooby_bw_level_1 109255
scooby_bw_level_2 10614
scooby_bw_level_3 1165

scooby_ipc_epochs 0
scooby_ipc_level_0 0
scooby_ipc_level_1 0
scooby_ipc_level_2 0
scooby_ipc_level_3 0

scooby_cache_acc_epochs 134742
scooby_cache_acc_level_0 38867
scooby_cache_acc_level_1 34333
scooby_cache_acc_level_2 22609
scooby_cache_acc_level_3 12923
scooby_cache_acc_level_4 6284
scooby_cache_acc_level_5 8337
scooby_cache_acc_level_6 3712
scooby_cache_acc_level_7 2156
scooby_cache_acc_level_8 1313
scooby_cache_acc_level_9 4208

Channel_0_RQ_row_buffer_hit 225271
Channel_0_RQ_row_buffer_miss 629365
Channel_0_WQ_row_buffer_hit 22837
Channel_0_WQ_row_buffer_miss 156563
Channel_0_WQ_full 0
Channel_0_dbus_congested 368127

avg_congested_cycle 8

DRAM_bw_pochs 2769529
DRAM_bw_level_0 2648495
DRAM_bw_level_1 109255
DRAM_bw_level_2 10614
DRAM_bw_level_3 1165
