*************************************************
   ChampSim Multicore Out-of-Order Simulator
   Last compiled: Feb 25 2025 16:17:27
*************************************************
parsing config file: /home/wzz/Pythia/config/pythia.ini

trace_0 /home/wzz/Pythia/traces/nutch_phase0_core0.trace.xz
adding L2C_PREFETCHER: Scooby
Initialize SHIP state
warmup_instructions 40000000
simulation_instructions 100000000
champsim_seed 1786
measure_ipc 0
measure_ipc_epoch 1000
measure_dram_bw 1
measure_dram_bw_epoch 256
measure_cache_acc 1
measure_cache_acc_epoch 1024
l1d_perfect 0
l2c_perfect 0
llc_perfect 0
l1d_semi_perfect 0
l2c_semi_perfect 0
llc_semi_perfect 0
semi_perfect_cache_page_buffer_size 64

num_cpus 1
cpu_freq 4000
dram_io_freq 2400
page_size 4096
block_size 64
max_read_per_cycle 8
max_fill_per_cycle 1
dram_channels 1
log2_dram_channels 0
dram_ranks 1
dram_banks 8
dram_rows 65536
dram_columns 128
dram_row_size 8
dram_size 4096
dram_pages 1048576

fetch_width 6
decode_width 6
exec_width 4
lq_width 2
sq_width 2
retire_width 4
scheduler_size 128
branch_mispredict_penalty 20
rob_size 256
lq_size 72
sq_size 56
num_instr_destinations_sparc 4
num_instr_destinations 2
num_instr_sources 4

itlb_set 16
itlb_way 8
itlb_rq_size 16
itlb_wq_size 16
itlb_pq_size 0
itlb_mshr_size 8
itlb_latency 1

dtlb_set 16
dtlb_way 4
dtlb_rq_size 16
dtlb_wq_size 16
dtlb_pq_size 0
dtlb_mshr_size 8
dtlb_latency 1

stlb_set 128
stlb_way 12
stlb_rq_size 32
stlb_wq_size 32
stlb_pq_size 0
stlb_mshr_size 16
stlb_latency 8

l1i_size 32
l1i_set 64
l1i_way 8
l1i_rq_size 64
l1i_wq_size 64
l1i_pq_size 8
l1i_mshr_size 8
l1i_latency 1

l1d_size 32
l1d_set 64
l1d_way 8
l1d_rq_size 64
l1d_wq_size 64
l1d_pq_size 8
l1d_mshr_size 16
l1d_latency 4

l2c_size 256
l2c_set 512
l2c_way 8
l2c_rq_size 32
l2c_wq_size 32
l2c_pq_size 32
l2c_mshr_size 32
l2c_latency 10

llc_size 2048
llc_set 2048
llc_way 16
llc_rq_size 32
llc_wq_size 32
llc_pq_size 32
llc_mshr_size 64
llc_latency 20

dram_channel_width 8
dram_wq_size 64
dram_rq_size 64
tRP 15
tRCD 15
tCAS 12.5
dram_dbus_turn_around_time 30
dram_write_high_wm 56
dram_write_low_wm 48
min_dram_writes_per_switch 16
dram_mtps 2400
dram_dbus_return_time 13

scooby_alpha 0.0065088
scooby_gamma 0.556301
scooby_epsilon 0.00182284
scooby_state_num_bits 10
scooby_max_states 1024
scooby_seed 200
scooby_policy EGreedy
scooby_learning_type SARSA
scooby_actions 1,3,4,5,10,11,12,22,23,30,32,-1,-3,-6,0,
scooby_max_actions 15
scooby_pt_size 256
scooby_st_size 64
scooby_max_pcs 5
scooby_max_offsets 5
scooby_max_deltas 5
scooby_reward_none -4
scooby_reward_incorrect -8
scooby_reward_correct_untimely 12
scooby_reward_correct_timely 20
scooby_brain_zero_init 0
scooby_enable_reward_all 0
scooby_enable_track_multiple 0
scooby_enable_reward_out_of_bounds 1
scooby_reward_out_of_bounds -12
scooby_state_type 1
scooby_state_hash_type 11
scooby_access_debug 0
scooby_print_access_debug 0
scooby_print_access_debug_pc deadbeef
scooby_print_access_debug_pc_count 0
scooby_print_trace 0
scooby_enable_state_action_stats 1
scooby_enable_reward_tracker_hit 0
scooby_reward_tracker_hit -2
scooby_enable_featurewise_engine 1
scooby_pref_degree 1
scooby_enable_dyn_degree 1
scooby_max_to_avg_q_thresholds 0.5,1,2,
scooby_dyn_degrees 1,2,4,4,
scooby_multi_deg_select_type 2
scooby_last_pref_offset_conf_thresholds 1,3,8,
scooby_dyn_degrees_type2 1,2,4,6,
scooby_action_tracker_size 2
scooby_high_bw_thresh 4
scooby_enable_hbw_reward 1
scooby_reward_hbw_correct_timely 20
scooby_reward_hbw_correct_untimely 12
scooby_reward_hbw_incorrect -14
scooby_reward_hbw_none -2
scooby_reward_hbw_out_of_bounds -12
scooby_reward_hbw_tracker_hit -2
scooby_last_pref_offset_conf_thresholds_hbw 1,3,8,
scooby_dyn_degrees_type2_hbw 1,2,4,6,

le_enable_trace 0
le_trace_interval 0
le_trace_file_name 
le_trace_state 0
le_enable_score_plot 0
le_plot_file_name 
le_plot_actions 
le_enable_action_trace 0
le_action_trace_interval 0
le_action_trace_name 
le_enable_action_plot 0

le_featurewise_active_features PC, PC_Delta
le_featurewise_num_tilings 3,3,
le_featurewise_num_tiles 128,128,
le_featurewise_hash_types 2,2,
le_featurewise_enable_tiling_offset 1,1,
le_featurewise_max_q_thresh 0.5
le_featurewise_enable_action_fallback 1
le_featurewise_feature_weights 1,1,
le_featurewise_enable_dynamic_weight 0
le_featurewise_weight_gradient 0.001
le_featurewise_disable_adjust_weight_all_features_align 1
le_featurewise_selective_update 0
le_featurewise_pooling_type 2
le_featurewise_enable_dyn_action_fallback 1
le_featurewise_bw_acc_check_level 1
le_featurewise_acc_thresh 2
le_featurewise_enable_trace 0
le_featurewise_trace_feature_type 0
le_featurewise_trace_feature 
le_featurewise_trace_interval 0
le_featurewise_trace_record_count 0
le_featurewise_trace_file_name 
le_featurewise_enable_score_plot 0
le_featurewise_plot_actions 
le_featurewise_plot_file_name 


Heartbeat CPU  0 instructions:    1000000 cycles:     624914 heartbeat IPC: 1.60022 cumulative IPC: 1.60022 (Simulation time: 0 hr 0 min 3 sec) 
Heartbeat CPU  0 instructions:    2000001 cycles:    1380141 heartbeat IPC: 1.32411 cumulative IPC: 1.44913 (Simulation time: 0 hr 0 min 7 sec) 
Heartbeat CPU  0 instructions:    3000003 cycles:    1824147 heartbeat IPC: 2.25223 cumulative IPC: 1.64461 (Simulation time: 0 hr 0 min 10 sec) 
Heartbeat CPU  0 instructions:    4000000 cycles:    2293413 heartbeat IPC: 2.13098 cumulative IPC: 1.74413 (Simulation time: 0 hr 0 min 13 sec) 
Heartbeat CPU  0 instructions:    5000001 cycles:    3018230 heartbeat IPC: 1.37966 cumulative IPC: 1.65660 (Simulation time: 0 hr 0 min 16 sec) 
Heartbeat CPU  0 instructions:    6000001 cycles:    3582959 heartbeat IPC: 1.77076 cumulative IPC: 1.67459 (Simulation time: 0 hr 0 min 18 sec) 
Heartbeat CPU  0 instructions:    7000002 cycles:    4017954 heartbeat IPC: 2.29888 cumulative IPC: 1.74218 (Simulation time: 0 hr 0 min 21 sec) 
Heartbeat CPU  0 instructions:    8000000 cycles:    4439555 heartbeat IPC: 2.37191 cumulative IPC: 1.80198 (Simulation time: 0 hr 0 min 25 sec) 
Heartbeat CPU  0 instructions:    9000001 cycles:    4860252 heartbeat IPC: 2.37701 cumulative IPC: 1.85176 (Simulation time: 0 hr 0 min 28 sec) 
Heartbeat CPU  0 instructions:   10000000 cycles:    5275092 heartbeat IPC: 2.41057 cumulative IPC: 1.89570 (Simulation time: 0 hr 0 min 31 sec) 
Heartbeat CPU  0 instructions:   11000002 cycles:    5687700 heartbeat IPC: 2.42361 cumulative IPC: 1.93400 (Simulation time: 0 hr 0 min 34 sec) 
Heartbeat CPU  0 instructions:   12000000 cycles:    6162198 heartbeat IPC: 2.10749 cumulative IPC: 1.94736 (Simulation time: 0 hr 0 min 37 sec) 
Heartbeat CPU  0 instructions:   13000000 cycles:    6768261 heartbeat IPC: 1.64999 cumulative IPC: 1.92073 (Simulation time: 0 hr 0 min 41 sec) 
Heartbeat CPU  0 instructions:   14000001 cycles:    7247376 heartbeat IPC: 2.08718 cumulative IPC: 1.93173 (Simulation time: 0 hr 0 min 44 sec) 
Heartbeat CPU  0 instructions:   15000000 cycles:    7880506 heartbeat IPC: 1.57945 cumulative IPC: 1.90343 (Simulation time: 0 hr 0 min 47 sec) 
Heartbeat CPU  0 instructions:   16000000 cycles:    8423990 heartbeat IPC: 1.83998 cumulative IPC: 1.89934 (Simulation time: 0 hr 0 min 50 sec) 
Heartbeat CPU  0 instructions:   17000001 cycles:    8856586 heartbeat IPC: 2.31163 cumulative IPC: 1.91948 (Simulation time: 0 hr 0 min 54 sec) 
Heartbeat CPU  0 instructions:   18000002 cycles:    9439382 heartbeat IPC: 1.71587 cumulative IPC: 1.90690 (Simulation time: 0 hr 0 min 57 sec) 
Heartbeat CPU  0 instructions:   19000002 cycles:    9917805 heartbeat IPC: 2.09020 cumulative IPC: 1.91575 (Simulation time: 0 hr 1 min 1 sec) 
Heartbeat CPU  0 instructions:   20000000 cycles:   10508399 heartbeat IPC: 1.69321 cumulative IPC: 1.90324 (Simulation time: 0 hr 1 min 3 sec) 
Heartbeat CPU  0 instructions:   21000002 cycles:   10961422 heartbeat IPC: 2.20740 cumulative IPC: 1.91581 (Simulation time: 0 hr 1 min 6 sec) 
Heartbeat CPU  0 instructions:   22000003 cycles:   11385014 heartbeat IPC: 2.36076 cumulative IPC: 1.93237 (Simulation time: 0 hr 1 min 9 sec) 
Heartbeat CPU  0 instructions:   23000001 cycles:   11808540 heartbeat IPC: 2.36113 cumulative IPC: 1.94774 (Simulation time: 0 hr 1 min 12 sec) 
Heartbeat CPU  0 instructions:   24000000 cycles:   12230317 heartbeat IPC: 2.37092 cumulative IPC: 1.96234 (Simulation time: 0 hr 1 min 15 sec) 
Heartbeat CPU  0 instructions:   25000000 cycles:   12642564 heartbeat IPC: 2.42573 cumulative IPC: 1.97745 (Simulation time: 0 hr 1 min 18 sec) 
Heartbeat CPU  0 instructions:   26000000 cycles:   13051508 heartbeat IPC: 2.44532 cumulative IPC: 1.99211 (Simulation time: 0 hr 1 min 21 sec) 
Heartbeat CPU  0 instructions:   27000001 cycles:   13540732 heartbeat IPC: 2.04406 cumulative IPC: 1.99398 (Simulation time: 0 hr 1 min 25 sec) 
Heartbeat CPU  0 instructions:   28000000 cycles:   13962200 heartbeat IPC: 2.37266 cumulative IPC: 2.00541 (Simulation time: 0 hr 1 min 28 sec) 
Heartbeat CPU  0 instructions:   29000001 cycles:   14378870 heartbeat IPC: 2.39998 cumulative IPC: 2.01685 (Simulation time: 0 hr 1 min 31 sec) 
Heartbeat CPU  0 instructions:   30000000 cycles:   14794770 heartbeat IPC: 2.40442 cumulative IPC: 2.02774 (Simulation time: 0 hr 1 min 34 sec) 
Heartbeat CPU  0 instructions:   31000000 cycles:   15277964 heartbeat IPC: 2.06956 cumulative IPC: 2.02907 (Simulation time: 0 hr 1 min 37 sec) 
Heartbeat CPU  0 instructions:   32000000 cycles:   15693918 heartbeat IPC: 2.40411 cumulative IPC: 2.03901 (Simulation time: 0 hr 1 min 40 sec) 
Heartbeat CPU  0 instructions:   33000000 cycles:   16076089 heartbeat IPC: 2.61663 cumulative IPC: 2.05274 (Simulation time: 0 hr 1 min 44 sec) 
Heartbeat CPU  0 instructions:   34000000 cycles:   16485679 heartbeat IPC: 2.44147 cumulative IPC: 2.06240 (Simulation time: 0 hr 1 min 47 sec) 
Heartbeat CPU  0 instructions:   35000003 cycles:   16894313 heartbeat IPC: 2.44719 cumulative IPC: 2.07170 (Simulation time: 0 hr 1 min 50 sec) 
Heartbeat CPU  0 instructions:   36000000 cycles:   17300667 heartbeat IPC: 2.46090 cumulative IPC: 2.08084 (Simulation time: 0 hr 1 min 53 sec) 
Heartbeat CPU  0 instructions:   37000002 cycles:   17746538 heartbeat IPC: 2.24281 cumulative IPC: 2.08491 (Simulation time: 0 hr 1 min 56 sec) 
Heartbeat CPU  0 instructions:   38000000 cycles:   18391947 heartbeat IPC: 1.54940 cumulative IPC: 2.06612 (Simulation time: 0 hr 2 min 0 sec) 
Heartbeat CPU  0 instructions:   39000000 cycles:   18968912 heartbeat IPC: 1.73321 cumulative IPC: 2.05600 (Simulation time: 0 hr 2 min 2 sec) 
Heartbeat CPU  0 instructions:   40000000 cycles:   19417221 heartbeat IPC: 2.23060 cumulative IPC: 2.06003 (Simulation time: 0 hr 2 min 5 sec) 

Warmup complete CPU  0 instructions:   40000004 cycles:   19417222 (Simulation time: 0 hr 2 min 5 sec) 

Heartbeat CPU  0 instructions:   41000000 cycles:   22623650 heartbeat IPC: 0.31187 cumulative IPC: 0.31187 (Simulation time: 0 hr 2 min 9 sec) 
Heartbeat CPU  0 instructions:   42000001 cycles:   25866188 heartbeat IPC: 0.30840 cumulative IPC: 0.31013 (Simulation time: 0 hr 2 min 13 sec) 
Heartbeat CPU  0 instructions:   43000001 cycles:   29114427 heartbeat IPC: 0.30786 cumulative IPC: 0.30937 (Simulation time: 0 hr 2 min 17 sec) 
Heartbeat CPU  0 instructions:   44000000 cycles:   32293306 heartbeat IPC: 0.31458 cumulative IPC: 0.31065 (Simulation time: 0 hr 2 min 21 sec) 
Heartbeat CPU  0 instructions:   45000000 cycles:   35494108 heartbeat IPC: 0.31242 cumulative IPC: 0.31101 (Simulation time: 0 hr 2 min 25 sec) 
Heartbeat CPU  0 instructions:   46000002 cycles:   37988636 heartbeat IPC: 0.40088 cumulative IPC: 0.32308 (Simulation time: 0 hr 2 min 29 sec) 
Heartbeat CPU  0 instructions:   47000001 cycles:   40894056 heartbeat IPC: 0.34418 cumulative IPC: 0.32593 (Simulation time: 0 hr 2 min 33 sec) 
Heartbeat CPU  0 instructions:   48000000 cycles:   43945379 heartbeat IPC: 0.32773 cumulative IPC: 0.32616 (Simulation time: 0 hr 2 min 37 sec) 
Heartbeat CPU  0 instructions:   49000000 cycles:   46986393 heartbeat IPC: 0.32884 cumulative IPC: 0.32645 (Simulation time: 0 hr 2 min 41 sec) 
Heartbeat CPU  0 instructions:   50000003 cycles:   50172246 heartbeat IPC: 0.31389 cumulative IPC: 0.32515 (Simulation time: 0 hr 2 min 45 sec) 
Heartbeat CPU  0 instructions:   51000001 cycles:   53292439 heartbeat IPC: 0.32049 cumulative IPC: 0.32472 (Simulation time: 0 hr 2 min 49 sec) 
Heartbeat CPU  0 instructions:   52000000 cycles:   56073252 heartbeat IPC: 0.35961 cumulative IPC: 0.32737 (Simulation time: 0 hr 2 min 53 sec) 
Heartbeat CPU  0 instructions:   53000002 cycles:   59761761 heartbeat IPC: 0.27111 cumulative IPC: 0.32222 (Simulation time: 0 hr 2 min 58 sec) 
Heartbeat CPU  0 instructions:   54000000 cycles:   63738285 heartbeat IPC: 0.25148 cumulative IPC: 0.31588 (Simulation time: 0 hr 3 min 3 sec) 
Heartbeat CPU  0 instructions:   55000000 cycles:   67649031 heartbeat IPC: 0.25571 cumulative IPC: 0.31100 (Simulation time: 0 hr 3 min 7 sec) 
Heartbeat CPU  0 instructions:   56000000 cycles:   71581422 heartbeat IPC: 0.25430 cumulative IPC: 0.30672 (Simulation time: 0 hr 3 min 12 sec) 
Heartbeat CPU  0 instructions:   57000002 cycles:   75938329 heartbeat IPC: 0.22952 cumulative IPC: 0.30077 (Simulation time: 0 hr 3 min 17 sec) 
Heartbeat CPU  0 instructions:   58000001 cycles:   79371187 heartbeat IPC: 0.29130 cumulative IPC: 0.30023 (Simulation time: 0 hr 3 min 22 sec) 
Heartbeat CPU  0 instructions:   59000001 cycles:   81754852 heartbeat IPC: 0.41952 cumulative IPC: 0.30479 (Simulation time: 0 hr 3 min 26 sec) 
Heartbeat CPU  0 instructions:   60000000 cycles:   84807506 heartbeat IPC: 0.32758 cumulative IPC: 0.30586 (Simulation time: 0 hr 3 min 30 sec) 
Heartbeat CPU  0 instructions:   61000003 cycles:   88048430 heartbeat IPC: 0.30855 cumulative IPC: 0.30598 (Simulation time: 0 hr 3 min 34 sec) 
Heartbeat CPU  0 instructions:   62000001 cycles:   91359282 heartbeat IPC: 0.30204 cumulative IPC: 0.30580 (Simulation time: 0 hr 3 min 38 sec) 
Heartbeat CPU  0 instructions:   63000000 cycles:   94625044 heartbeat IPC: 0.30621 cumulative IPC: 0.30582 (Simulation time: 0 hr 3 min 42 sec) 
Heartbeat CPU  0 instructions:   64000000 cycles:   97877545 heartbeat IPC: 0.30746 cumulative IPC: 0.30589 (Simulation time: 0 hr 3 min 46 sec) 
Heartbeat CPU  0 instructions:   65000000 cycles:  101158171 heartbeat IPC: 0.30482 cumulative IPC: 0.30584 (Simulation time: 0 hr 3 min 49 sec) 
Heartbeat CPU  0 instructions:   66000000 cycles:  103867995 heartbeat IPC: 0.36903 cumulative IPC: 0.30787 (Simulation time: 0 hr 3 min 54 sec) 
Heartbeat CPU  0 instructions:   67000003 cycles:  106917112 heartbeat IPC: 0.32796 cumulative IPC: 0.30857 (Simulation time: 0 hr 3 min 58 sec) 
Heartbeat CPU  0 instructions:   68000000 cycles:  110108693 heartbeat IPC: 0.31332 cumulative IPC: 0.30874 (Simulation time: 0 hr 4 min 3 sec) 
Heartbeat CPU  0 instructions:   69000000 cycles:  113090842 heartbeat IPC: 0.33533 cumulative IPC: 0.30959 (Simulation time: 0 hr 4 min 7 sec) 
Heartbeat CPU  0 instructions:   70000001 cycles:  115049900 heartbeat IPC: 0.51045 cumulative IPC: 0.31370 (Simulation time: 0 hr 4 min 11 sec) 
Heartbeat CPU  0 instructions:   71000000 cycles:  118094887 heartbeat IPC: 0.32841 cumulative IPC: 0.31415 (Simulation time: 0 hr 4 min 14 sec) 
Heartbeat CPU  0 instructions:   72000000 cycles:  121478983 heartbeat IPC: 0.29550 cumulative IPC: 0.31354 (Simulation time: 0 hr 4 min 19 sec) 
Heartbeat CPU  0 instructions:   73000000 cycles:  124477791 heartbeat IPC: 0.33347 cumulative IPC: 0.31410 (Simulation time: 0 hr 4 min 23 sec) 
Heartbeat CPU  0 instructions:   74000000 cycles:  127921031 heartbeat IPC: 0.29042 cumulative IPC: 0.31335 (Simulation time: 0 hr 4 min 27 sec) 
Heartbeat CPU  0 instructions:   75000003 cycles:  131262737 heartbeat IPC: 0.29925 cumulative IPC: 0.31293 (Simulation time: 0 hr 4 min 31 sec) 
Heartbeat CPU  0 instructions:   76000000 cycles:  134317806 heartbeat IPC: 0.32732 cumulative IPC: 0.31331 (Simulation time: 0 hr 4 min 35 sec) 
Heartbeat CPU  0 instructions:   77000001 cycles:  137125234 heartbeat IPC: 0.35620 cumulative IPC: 0.31434 (Simulation time: 0 hr 4 min 40 sec) 
Heartbeat CPU  0 instructions:   78000000 cycles:  140514546 heartbeat IPC: 0.29504 cumulative IPC: 0.31380 (Simulation time: 0 hr 4 min 44 sec) 
Heartbeat CPU  0 instructions:   79000002 cycles:  143452801 heartbeat IPC: 0.34034 cumulative IPC: 0.31443 (Simulation time: 0 hr 4 min 48 sec) 
Heartbeat CPU  0 instructions:   80000000 cycles:  146429560 heartbeat IPC: 0.33594 cumulative IPC: 0.31493 (Simulation time: 0 hr 4 min 53 sec) 
Heartbeat CPU  0 instructions:   81000001 cycles:  149411976 heartbeat IPC: 0.33530 cumulative IPC: 0.31540 (Simulation time: 0 hr 4 min 57 sec) 
Heartbeat CPU  0 instructions:   82000001 cycles:  151653343 heartbeat IPC: 0.44616 cumulative IPC: 0.31761 (Simulation time: 0 hr 5 min 1 sec) 
Heartbeat CPU  0 instructions:   83000003 cycles:  152825949 heartbeat IPC: 0.85280 cumulative IPC: 0.32232 (Simulation time: 0 hr 5 min 4 sec) 
Heartbeat CPU  0 instructions:   84000000 cycles:  155996138 heartbeat IPC: 0.31544 cumulative IPC: 0.32216 (Simulation time: 0 hr 5 min 8 sec) 
Heartbeat CPU  0 instructions:   85000002 cycles:  159334506 heartbeat IPC: 0.29955 cumulative IPC: 0.32162 (Simulation time: 0 hr 5 min 12 sec) 
Heartbeat CPU  0 instructions:   86000002 cycles:  162655024 heartbeat IPC: 0.30116 cumulative IPC: 0.32114 (Simulation time: 0 hr 5 min 16 sec) 
Heartbeat CPU  0 instructions:   87000001 cycles:  166061351 heartbeat IPC: 0.29357 cumulative IPC: 0.32050 (Simulation time: 0 hr 5 min 20 sec) 
Heartbeat CPU  0 instructions:   88000000 cycles:  169407077 heartbeat IPC: 0.29889 cumulative IPC: 0.32002 (Simulation time: 0 hr 5 min 24 sec) 
Heartbeat CPU  0 instructions:   89000003 cycles:  172269446 heartbeat IPC: 0.34936 cumulative IPC: 0.32057 (Simulation time: 0 hr 5 min 28 sec) 
Heartbeat CPU  0 instructions:   90000003 cycles:  175381019 heartbeat IPC: 0.32138 cumulative IPC: 0.32059 (Simulation time: 0 hr 5 min 33 sec) 
Heartbeat CPU  0 instructions:   91000001 cycles:  178691174 heartbeat IPC: 0.30210 cumulative IPC: 0.32020 (Simulation time: 0 hr 5 min 37 sec) 
Heartbeat CPU  0 instructions:   92000000 cycles:  181555783 heartbeat IPC: 0.34909 cumulative IPC: 0.32071 (Simulation time: 0 hr 5 min 41 sec) 
Heartbeat CPU  0 instructions:   93000000 cycles:  184424918 heartbeat IPC: 0.34854 cumulative IPC: 0.32120 (Simulation time: 0 hr 5 min 46 sec) 
Heartbeat CPU  0 instructions:   94000001 cycles:  187589776 heartbeat IPC: 0.31597 cumulative IPC: 0.32110 (Simulation time: 0 hr 5 min 50 sec) 
Heartbeat CPU  0 instructions:   95000001 cycles:  190788232 heartbeat IPC: 0.31265 cumulative IPC: 0.32094 (Simulation time: 0 hr 5 min 55 sec) 
Heartbeat CPU  0 instructions:   96000000 cycles:  193640233 heartbeat IPC: 0.35063 cumulative IPC: 0.32143 (Simulation time: 0 hr 5 min 59 sec) 
Heartbeat CPU  0 instructions:   97000002 cycles:  196393372 heartbeat IPC: 0.36322 cumulative IPC: 0.32208 (Simulation time: 0 hr 6 min 4 sec) 
Heartbeat CPU  0 instructions:   98000000 cycles:  199911013 heartbeat IPC: 0.28428 cumulative IPC: 0.32134 (Simulation time: 0 hr 6 min 8 sec) 
Heartbeat CPU  0 instructions:   99000002 cycles:  203491618 heartbeat IPC: 0.27928 cumulative IPC: 0.32052 (Simulation time: 0 hr 6 min 13 sec) 
*** Reached end of trace for Core: 0 Repeating trace: /home/wzz/Pythia/traces/nutch_phase0_core0.trace.xz
Heartbeat CPU  0 instructions:  100000000 cycles:  206276363 heartbeat IPC: 0.35910 cumulative IPC: 0.32110 (Simulation time: 0 hr 6 min 17 sec) 
Heartbeat CPU  0 instructions:  101000002 cycles:  208949564 heartbeat IPC: 0.37408 cumulative IPC: 0.32184 (Simulation time: 0 hr 6 min 21 sec) 
Heartbeat CPU  0 instructions:  102000003 cycles:  213645960 heartbeat IPC: 0.21293 cumulative IPC: 0.31921 (Simulation time: 0 hr 6 min 25 sec) 
Heartbeat CPU  0 instructions:  103000001 cycles:  217057018 heartbeat IPC: 0.29316 cumulative IPC: 0.31876 (Simulation time: 0 hr 6 min 29 sec) 
Heartbeat CPU  0 instructions:  104000000 cycles:  219791859 heartbeat IPC: 0.36565 cumulative IPC: 0.31940 (Simulation time: 0 hr 6 min 34 sec) 
Heartbeat CPU  0 instructions:  105000000 cycles:  222813548 heartbeat IPC: 0.33094 cumulative IPC: 0.31957 (Simulation time: 0 hr 6 min 38 sec) 
Heartbeat CPU  0 instructions:  106000000 cycles:  224269032 heartbeat IPC: 0.68706 cumulative IPC: 0.32218 (Simulation time: 0 hr 6 min 41 sec) 
Heartbeat CPU  0 instructions:  107000000 cycles:  227514810 heartbeat IPC: 0.30809 cumulative IPC: 0.32196 (Simulation time: 0 hr 6 min 45 sec) 
Heartbeat CPU  0 instructions:  108000000 cycles:  230710741 heartbeat IPC: 0.31290 cumulative IPC: 0.32183 (Simulation time: 0 hr 6 min 49 sec) 
Heartbeat CPU  0 instructions:  109000000 cycles:  233917922 heartbeat IPC: 0.31180 cumulative IPC: 0.32168 (Simulation time: 0 hr 6 min 53 sec) 
Heartbeat CPU  0 instructions:  110000001 cycles:  237143092 heartbeat IPC: 0.31006 cumulative IPC: 0.32151 (Simulation time: 0 hr 6 min 57 sec) 
Heartbeat CPU  0 instructions:  111000003 cycles:  240351001 heartbeat IPC: 0.31173 cumulative IPC: 0.32136 (Simulation time: 0 hr 7 min 1 sec) 
Heartbeat CPU  0 instructions:  112000000 cycles:  243115743 heartbeat IPC: 0.36170 cumulative IPC: 0.32186 (Simulation time: 0 hr 7 min 5 sec) 
Heartbeat CPU  0 instructions:  113000001 cycles:  245773129 heartbeat IPC: 0.37631 cumulative IPC: 0.32250 (Simulation time: 0 hr 7 min 9 sec) 
Heartbeat CPU  0 instructions:  114000000 cycles:  247937489 heartbeat IPC: 0.46203 cumulative IPC: 0.32382 (Simulation time: 0 hr 7 min 13 sec) 
Heartbeat CPU  0 instructions:  115000003 cycles:  251239369 heartbeat IPC: 0.30286 cumulative IPC: 0.32352 (Simulation time: 0 hr 7 min 18 sec) 
Heartbeat CPU  0 instructions:  116000000 cycles:  254949711 heartbeat IPC: 0.26952 cumulative IPC: 0.32267 (Simulation time: 0 hr 7 min 22 sec) 
Heartbeat CPU  0 instructions:  117000001 cycles:  258320040 heartbeat IPC: 0.29671 cumulative IPC: 0.32231 (Simulation time: 0 hr 7 min 26 sec) 
Heartbeat CPU  0 instructions:  118000001 cycles:  261299520 heartbeat IPC: 0.33563 cumulative IPC: 0.32247 (Simulation time: 0 hr 7 min 30 sec) 
Heartbeat CPU  0 instructions:  119000000 cycles:  264351324 heartbeat IPC: 0.32767 cumulative IPC: 0.32254 (Simulation time: 0 hr 7 min 35 sec) 
Heartbeat CPU  0 instructions:  120000000 cycles:  265537725 heartbeat IPC: 0.84289 cumulative IPC: 0.32504 (Simulation time: 0 hr 7 min 38 sec) 
Heartbeat CPU  0 instructions:  121000002 cycles:  268496377 heartbeat IPC: 0.33799 cumulative IPC: 0.32520 (Simulation time: 0 hr 7 min 42 sec) 
Heartbeat CPU  0 instructions:  122000001 cycles:  271543008 heartbeat IPC: 0.32823 cumulative IPC: 0.32523 (Simulation time: 0 hr 7 min 45 sec) 
Heartbeat CPU  0 instructions:  123000003 cycles:  274684665 heartbeat IPC: 0.31830 cumulative IPC: 0.32515 (Simulation time: 0 hr 7 min 49 sec) 
Heartbeat CPU  0 instructions:  124000000 cycles:  277805120 heartbeat IPC: 0.32047 cumulative IPC: 0.32509 (Simulation time: 0 hr 7 min 53 sec) 
Heartbeat CPU  0 instructions:  125000002 cycles:  281071714 heartbeat IPC: 0.30613 cumulative IPC: 0.32486 (Simulation time: 0 hr 7 min 57 sec) 
Heartbeat CPU  0 instructions:  126000001 cycles:  284291393 heartbeat IPC: 0.31059 cumulative IPC: 0.32468 (Simulation time: 0 hr 8 min 1 sec) 
Heartbeat CPU  0 instructions:  127000000 cycles:  286862593 heartbeat IPC: 0.38892 cumulative IPC: 0.32530 (Simulation time: 0 hr 8 min 6 sec) 
Heartbeat CPU  0 instructions:  128000000 cycles:  290253590 heartbeat IPC: 0.29490 cumulative IPC: 0.32492 (Simulation time: 0 hr 8 min 10 sec) 
Heartbeat CPU  0 instructions:  129000003 cycles:  293469012 heartbeat IPC: 0.31100 cumulative IPC: 0.32476 (Simulation time: 0 hr 8 min 14 sec) 
Heartbeat CPU  0 instructions:  130000001 cycles:  296733290 heartbeat IPC: 0.30635 cumulative IPC: 0.32454 (Simulation time: 0 hr 8 min 18 sec) 
Heartbeat CPU  0 instructions:  131000000 cycles:  299469859 heartbeat IPC: 0.36542 cumulative IPC: 0.32494 (Simulation time: 0 hr 8 min 22 sec) 
Heartbeat CPU  0 instructions:  132000000 cycles:  302495557 heartbeat IPC: 0.33050 cumulative IPC: 0.32500 (Simulation time: 0 hr 8 min 26 sec) 
Heartbeat CPU  0 instructions:  133000000 cycles:  305520045 heartbeat IPC: 0.33063 cumulative IPC: 0.32506 (Simulation time: 0 hr 8 min 30 sec) 
Heartbeat CPU  0 instructions:  134000000 cycles:  308676821 heartbeat IPC: 0.31678 cumulative IPC: 0.32497 (Simulation time: 0 hr 8 min 34 sec) 
Heartbeat CPU  0 instructions:  135000002 cycles:  311916456 heartbeat IPC: 0.30868 cumulative IPC: 0.32479 (Simulation time: 0 hr 8 min 38 sec) 
Heartbeat CPU  0 instructions:  136000000 cycles:  315073466 heartbeat IPC: 0.31675 cumulative IPC: 0.32470 (Simulation time: 0 hr 8 min 42 sec) 
Heartbeat CPU  0 instructions:  137000001 cycles:  317617263 heartbeat IPC: 0.39311 cumulative IPC: 0.32528 (Simulation time: 0 hr 8 min 46 sec) 
Heartbeat CPU  0 instructions:  138000000 cycles:  320823389 heartbeat IPC: 0.31190 cumulative IPC: 0.32514 (Simulation time: 0 hr 8 min 50 sec) 
Heartbeat CPU  0 instructions:  139000003 cycles:  322030752 heartbeat IPC: 0.82825 cumulative IPC: 0.32715 (Simulation time: 0 hr 8 min 54 sec) 
Heartbeat CPU  0 instructions:  140000000 cycles:  324232564 heartbeat IPC: 0.45417 cumulative IPC: 0.32807 (Simulation time: 0 hr 8 min 57 sec) 
Finished CPU 0 instructions: 100000003 cycles: 304815357 cumulative IPC: 0.32807 (Simulation time: 0 hr 8 min 57 sec) 

ChampSim completed all CPUs

[ROI Statistics]
Core_0_instructions 100000003
Core_0_cycles 304815357
Core_0_IPC 0.32807

Core_0_branch_prediction_accuracy 95.90549
Core_0_branch_MPKI 6.85656
Core_0_average_ROB_occupancy_at_mispredict 96.63554

Core_0_L1D_total_access 19654052
Core_0_L1D_total_hit 18973027
Core_0_L1D_total_miss 681025
Core_0_L1D_loads 10581153
Core_0_L1D_load_hit 10052255
Core_0_L1D_load_miss 528898
Core_0_L1D_RFOs 9072899
Core_0_L1D_RFO_hit 8920772
Core_0_L1D_RFO_miss 152127
Core_0_L1D_prefetches 0
Core_0_L1D_prefetch_hit 0
Core_0_L1D_prefetch_miss 0
Core_0_L1D_writebacks 0
Core_0_L1D_writeback_hit 0
Core_0_L1D_writeback_miss 0
Core_0_L1D_prefetch_requested 0
Core_0_L1D_prefetch_dropped 0
Core_0_L1D_prefetch_issued 0
Core_0_L1D_prefetch_filled 0
Core_0_L1D_prefetch_useful 0
Core_0_L1D_prefetch_useless 0
Core_0_L1D_prefetch_late 0
Core_0_L1D_average_miss_latency 67.01686

Core_0_L1D_rq_access 16775339
Core_0_L1D_rq_forward 0
Core_0_L1D_rq_merged 6140038
Core_0_L1D_rq_to_cache 10634396
Core_0_L1D_rq_full 0

Core_0_L1D_wq_access 9860632
Core_0_L1D_wq_forward 905
Core_0_L1D_wq_merged 232918
Core_0_L1D_wq_to_cache 9627714
Core_0_L1D_wq_full 21049

Core_0_L1D_pq_access 0
Core_0_L1D_pq_forward 0
Core_0_L1D_pq_merged 0
Core_0_L1D_pq_to_cache 0
Core_0_L1D_pq_full 0

Core_0_L1D_acc_epochs 115255
Core_0_L1D_acc_level_0 115255
Core_0_L1D_acc_level_1 0
Core_0_L1D_acc_level_2 0
Core_0_L1D_acc_level_3 0
Core_0_L1D_acc_level_4 0
Core_0_L1D_acc_level_5 0
Core_0_L1D_acc_level_6 0
Core_0_L1D_acc_level_7 0
Core_0_L1D_acc_level_8 0
Core_0_L1D_acc_level_9 0

Core_0_L1I_total_access 18529290
Core_0_L1I_total_hit 17824000
Core_0_L1I_total_miss 705290
Core_0_L1I_loads 18529290
Core_0_L1I_load_hit 17824000
Core_0_L1I_load_miss 705290
Core_0_L1I_RFOs 0
Core_0_L1I_RFO_hit 0
Core_0_L1I_RFO_miss 0
Core_0_L1I_prefetches 0
Core_0_L1I_prefetch_hit 0
Core_0_L1I_prefetch_miss 0
Core_0_L1I_writebacks 0
Core_0_L1I_writeback_hit 0
Core_0_L1I_writeback_miss 0
Core_0_L1I_prefetch_requested 0
Core_0_L1I_prefetch_dropped 0
Core_0_L1I_prefetch_issued 0
Core_0_L1I_prefetch_filled 0
Core_0_L1I_prefetch_useful 0
Core_0_L1I_prefetch_useless 0
Core_0_L1I_prefetch_late 0
Core_0_L1I_average_miss_latency 72.00608

Core_0_L1I_rq_access 99999974
Core_0_L1I_rq_forward 0
Core_0_L1I_rq_merged 81061036
Core_0_L1I_rq_to_cache 18938938
Core_0_L1I_rq_full 0

Core_0_L1I_wq_access 0
Core_0_L1I_wq_forward 0
Core_0_L1I_wq_merged 0
Core_0_L1I_wq_to_cache 0
Core_0_L1I_wq_full 0

Core_0_L1I_pq_access 0
Core_0_L1I_pq_forward 0
Core_0_L1I_pq_merged 0
Core_0_L1I_pq_to_cache 0
Core_0_L1I_pq_full 0

Core_0_L1I_acc_epochs 115255
Core_0_L1I_acc_level_0 115255
Core_0_L1I_acc_level_1 0
Core_0_L1I_acc_level_2 0
Core_0_L1I_acc_level_3 0
Core_0_L1I_acc_level_4 0
Core_0_L1I_acc_level_5 0
Core_0_L1I_acc_level_6 0
Core_0_L1I_acc_level_7 0
Core_0_L1I_acc_level_8 0
Core_0_L1I_acc_level_9 0

Core_0_L2C_total_access 4464230
Core_0_L2C_total_hit 3867193
Core_0_L2C_total_miss 597037
Core_0_L2C_loads 1234158
Core_0_L2C_load_hit 1096974
Core_0_L2C_load_miss 137184
Core_0_L2C_RFOs 152023
Core_0_L2C_RFO_hit 111864
Core_0_L2C_RFO_miss 40159
Core_0_L2C_prefetches 2694963
Core_0_L2C_prefetch_hit 2279863
Core_0_L2C_prefetch_miss 415100
Core_0_L2C_writebacks 383086
Core_0_L2C_writeback_hit 378492
Core_0_L2C_writeback_miss 4594
Core_0_L2C_prefetch_requested 4516960
Core_0_L2C_prefetch_dropped 4632
Core_0_L2C_prefetch_issued 4512328
Core_0_L2C_prefetch_filled 604897
Core_0_L2C_prefetch_useful 387640
Core_0_L2C_prefetch_useless 216854
Core_0_L2C_prefetch_late 23004
Core_0_L2C_average_miss_latency 150.78249

Core_0_L2C_rq_access 1386315
Core_0_L2C_rq_forward 0
Core_0_L2C_rq_merged 0
Core_0_L2C_rq_to_cache 1386181
Core_0_L2C_rq_full 0

Core_0_L2C_wq_access 383086
Core_0_L2C_wq_forward 137
Core_0_L2C_wq_merged 0
Core_0_L2C_wq_to_cache 383086
Core_0_L2C_wq_full 0

Core_0_L2C_pq_access 4512328
Core_0_L2C_pq_forward 0
Core_0_L2C_pq_merged 760763
Core_0_L2C_pq_to_cache 3751562
Core_0_L2C_pq_full 0

Core_0_L2C_acc_epochs 115255
Core_0_L2C_acc_level_0 27550
Core_0_L2C_acc_level_1 4718
Core_0_L2C_acc_level_2 5442
Core_0_L2C_acc_level_3 6347
Core_0_L2C_acc_level_4 6541
Core_0_L2C_acc_level_5 6662
Core_0_L2C_acc_level_6 5257
Core_0_L2C_acc_level_7 5234
Core_0_L2C_acc_level_8 6065
Core_0_L2C_acc_level_9 41439

Core_0_LLC_total_access 821641
Core_0_LLC_total_hit 373125
Core_0_LLC_total_miss 448516
Core_0_LLC_loads 114937
Core_0_LLC_load_hit 82057
Core_0_LLC_load_miss 32880
Core_0_LLC_RFOs 40136
Core_0_LLC_RFO_hit 10883
Core_0_LLC_RFO_miss 29253
Core_0_LLC_prefetches 437365
Core_0_LLC_prefetch_hit 178108
Core_0_LLC_prefetch_miss 259257
Core_0_LLC_writebacks 229203
Core_0_LLC_writeback_hit 102077
Core_0_LLC_writeback_miss 127126
Core_0_LLC_prefetch_requested 0
Core_0_LLC_prefetch_dropped 0
Core_0_LLC_prefetch_issued 0
Core_0_LLC_prefetch_filled 388985
Core_0_LLC_prefetch_useful 16565
Core_0_LLC_prefetch_useless 363225
Core_0_LLC_prefetch_late 0
Core_0_LLC_average_miss_latency 136.45027

Core_0_LLC_rq_access 155078
Core_0_LLC_rq_forward 0
Core_0_LLC_rq_merged 0
Core_0_LLC_rq_to_cache 155073
Core_0_LLC_rq_full 0

Core_0_LLC_wq_access 229203
Core_0_LLC_wq_forward 5
Core_0_LLC_wq_merged 0
Core_0_LLC_wq_to_cache 229203
Core_0_LLC_wq_full 0

Core_0_LLC_pq_access 627901
Core_0_LLC_pq_forward 0
Core_0_LLC_pq_merged 0
Core_0_LLC_pq_to_cache 627901
Core_0_LLC_pq_full 0

Core_0_LLC_acc_epochs 316634
Core_0_LLC_acc_level_0 311143
Core_0_LLC_acc_level_1 2359
Core_0_LLC_acc_level_2 1294
Core_0_LLC_acc_level_3 389
Core_0_LLC_acc_level_4 145
Core_0_LLC_acc_level_5 572
Core_0_LLC_acc_level_6 96
Core_0_LLC_acc_level_7 83
Core_0_LLC_acc_level_8 46
Core_0_LLC_acc_level_9 507

Core_0_major_page_fault 0
Core_0_minor_page_fault 6846

scooby_st_lookup 1557756
scooby_st_hit 1256897
scooby_st_evict 300795
scooby_st_insert 300859
scooby_st_streaming 0

scooby_predict_called 1557756
scooby_predict_out_of_bounds 23756
scooby_predict_action_1 1513290
scooby_predict_issue_action_1 1507717
scooby_predict_hit_action_1 5573
scooby_predict_out_of_bounds_action_1 21758
scooby_predict_action_3 5717
scooby_predict_issue_action_3 5527
scooby_predict_hit_action_3 190
scooby_predict_out_of_bounds_action_3 149
scooby_predict_action_4 3777
scooby_predict_issue_action_4 3716
scooby_predict_hit_action_4 61
scooby_predict_out_of_bounds_action_4 143
scooby_predict_action_5 2718
scooby_predict_issue_action_5 2483
scooby_predict_hit_action_5 235
scooby_predict_out_of_bounds_action_5 157
scooby_predict_action_10 652
scooby_predict_issue_action_10 636
scooby_predict_hit_action_10 16
scooby_predict_out_of_bounds_action_10 111
scooby_predict_action_11 664
scooby_predict_issue_action_11 656
scooby_predict_hit_action_11 8
scooby_predict_out_of_bounds_action_11 123
scooby_predict_action_12 713
scooby_predict_issue_action_12 705
scooby_predict_hit_action_12 8
scooby_predict_out_of_bounds_action_12 138
scooby_predict_action_22 842
scooby_predict_issue_action_22 841
scooby_predict_hit_action_22 1
scooby_predict_out_of_bounds_action_22 282
scooby_predict_action_23 420
scooby_predict_issue_action_23 400
scooby_predict_hit_action_23 20
scooby_predict_out_of_bounds_action_23 202
scooby_predict_action_30 386
scooby_predict_issue_action_30 383
scooby_predict_hit_action_30 3
scooby_predict_out_of_bounds_action_30 266
scooby_predict_action_32 328
scooby_predict_issue_action_32 325
scooby_predict_hit_action_32 3
scooby_predict_out_of_bounds_action_32 307
scooby_predict_action_-1 883
scooby_predict_issue_action_-1 557
scooby_predict_hit_action_-1 326
scooby_predict_out_of_bounds_action_-1 13
scooby_predict_action_-3 1802
scooby_predict_issue_action_-3 1432
scooby_predict_hit_action_-3 370
scooby_predict_out_of_bounds_action_-3 48
scooby_predict_action_-6 703
scooby_predict_issue_action_-6 486
scooby_predict_hit_action_-6 217
scooby_predict_out_of_bounds_action_-6 59
scooby_predict_action_0 1105
scooby_predict_issue_action_0 0
scooby_predict_hit_action_0 0
scooby_predict_out_of_bounds_action_0 0
scooby_predict_multi_deg_called 892990
scooby_predict_predicted 4516960
scooby_predict_multi_deg 2991096
scooby_predict_multi_deg_2 874403
scooby_predict_multi_deg_3 670473
scooby_predict_multi_deg_4 656672
scooby_predict_multi_deg_5 399837
scooby_predict_multi_deg_6 389711
scooby_predict_multi_deg_7 0
scooby_predict_multi_deg_8 0
scooby_predict_multi_deg_9 0
scooby_predict_multi_deg_10 0
scooby_predict_multi_deg_11 0
scooby_predict_multi_deg_12 0
scooby_predict_multi_deg_13 0
scooby_predict_multi_deg_14 0
scooby_predict_multi_deg_15 0
scooby_predict_multi_deg_16 0

scooby_selected_deg_1 632874
scooby_selected_deg_2 193574
scooby_selected_deg_3 0
scooby_selected_deg_4 260228
scooby_selected_deg_5 0
scooby_selected_deg_6 439188
scooby_selected_deg_7 0
scooby_selected_deg_8 0
scooby_selected_deg_9 0
scooby_selected_deg_10 0
scooby_selected_deg_11 0
scooby_selected_deg_12 0
scooby_selected_deg_13 0
scooby_selected_deg_14 0
scooby_selected_deg_15 0
scooby_selected_deg_16 0

scooby_state_1130b3c|0|0 1805,1,0,0,0,0,0,0,0,0,0,0,1,1,0,1808,
scooby_state_114aeec|59|0 1678,1,0,1,2,1,1,0,0,2,0,0,1,0,0,1687,
scooby_state_103bef0|59|0 1684,1,0,0,2,0,0,0,0,0,0,0,0,0,0,1687,
scooby_state_10011c0|7|1 982,1,0,468,0,0,0,0,1,0,1,0,1,1,0,1455,
scooby_state_1001b40|45|1 1443,0,0,0,0,0,1,0,0,0,0,0,0,0,0,1444,
scooby_state_1007348|0|0 1432,8,0,0,0,2,0,0,1,0,1,0,0,0,0,1444,
scooby_state_1298b00|44|1 1437,0,0,0,0,0,0,0,0,0,0,1,2,2,0,1442,
scooby_state_1298ae8|43|1 1442,0,0,0,0,0,0,0,0,0,0,0,0,0,0,1442,
scooby_state_10abb00|44|1 1431,0,1,0,0,0,1,0,0,0,1,0,1,1,1,1437,
scooby_state_1113b0c|44|1 1398,26,0,0,0,0,0,0,0,1,0,0,0,0,1,1426,
scooby_state_1113ad0|43|1 1421,0,0,0,0,1,0,1,0,0,1,0,2,0,0,1426,
scooby_state_1113a9c|42|-9 1420,0,0,0,1,0,0,2,1,0,0,2,0,0,0,1426,
scooby_state_10abac0|43|1 1422,0,0,0,0,1,0,0,0,0,2,0,0,0,0,1425,
scooby_state_12d4ac0|43|1 1417,0,1,0,0,0,0,0,0,0,0,0,0,0,0,1418,
scooby_state_12eee88|58|0 1415,0,0,0,0,0,0,0,1,1,0,0,0,0,1,1418,
scooby_state_10bbb64|45|0 1417,0,0,0,0,0,0,0,1,0,0,0,0,0,0,1418,
scooby_state_1149f00|60|1 1414,1,1,1,0,0,0,0,1,0,0,0,0,0,0,1418,
scooby_state_131eb00|44|1 1415,1,0,0,0,0,0,1,1,0,0,0,0,0,0,1418,
scooby_state_1321cf4|51|0 1415,0,1,0,0,0,0,0,1,0,0,0,0,1,0,1418,
scooby_state_1322240|9|1 1418,0,0,0,0,0,0,0,0,0,0,0,0,0,0,1418,
scooby_state_12d4b70|45|1 1414,0,0,1,0,1,0,0,0,0,0,0,0,1,1,1418,
scooby_state_1321ec0|59|1 1415,0,0,0,0,0,0,0,0,0,0,2,1,0,0,1418,
scooby_state_12dff0c|60|1 1415,0,0,0,1,1,0,0,0,0,0,0,0,0,1,1418,
scooby_state_131eac0|43|1 1413,0,0,0,0,0,0,1,1,1,0,1,0,0,1,1418,
scooby_state_12dfec0|59|1 1414,1,1,0,0,0,0,0,0,0,0,0,2,0,0,1418,
scooby_state_12eef00|60|1 1418,0,0,0,0,0,0,0,0,0,0,0,0,0,0,1418,
scooby_state_1130afc|43|0 1417,0,0,0,0,1,0,0,0,0,0,0,0,0,0,1418,
scooby_state_12e0240|9|1 1357,0,1,50,1,0,2,4,1,0,1,1,0,0,0,1418,
scooby_state_12d4b00|44|1 1411,0,0,0,1,0,1,0,2,2,0,0,0,1,0,1418,
scooby_state_12eeec0|59|1 1414,0,1,0,0,0,0,1,0,0,1,1,0,0,0,1418,
scooby_state_1149ec4|59|1 1417,0,0,1,0,0,0,0,0,0,0,0,0,0,0,1418,
scooby_state_1321f00|60|1 1416,1,0,0,0,0,0,0,0,0,0,0,1,0,0,1418,
scooby_state_12d4ec0|59|1 1365,43,6,1,2,0,0,0,0,0,0,0,0,0,0,1417,
scooby_state_10bbec0|59|1 1413,0,0,0,0,0,1,0,0,0,0,0,1,1,1,1417,
scooby_state_1130b00|44|1 1410,0,0,0,0,0,0,0,0,1,0,0,0,0,0,1411,
scooby_state_131e8c0|35|1 1404,0,0,0,0,0,0,0,0,0,0,0,0,0,0,1404,
scooby_state_13261cc|7|-5 1401,0,1,0,1,0,0,0,0,0,1,0,0,0,0,1404,
scooby_state_1326200|8|1 1279,1,63,52,0,1,1,1,0,1,0,2,1,1,1,1404,
scooby_state_1322238|8|1 1401,1,0,0,1,0,0,0,0,0,0,0,1,0,0,1404,
scooby_state_13088c8|35|0 1401,0,0,0,0,0,0,1,0,0,0,0,1,1,0,1404,
scooby_state_131ea28|0|0 1387,0,0,1,0,0,0,1,1,1,1,1,1,1,2,1397,
scooby_state_10bbf04|60|1 1395,0,0,0,0,0,0,0,0,0,0,0,0,2,0,1397,
scooby_state_10bbbd4|47|2 1373,21,0,0,0,0,0,0,0,0,0,1,1,0,0,1396,
scooby_state_10bbe9c|58|11 1393,0,0,1,0,0,0,0,0,0,1,1,0,0,0,1396,
scooby_state_12d18d0|35|0 1387,1,0,0,1,1,0,1,0,1,0,0,0,0,0,1392,
scooby_state_1149e80|58|1 1386,1,0,0,0,0,0,0,1,0,0,0,0,0,0,1388,
scooby_state_1321e80|58|1 1384,0,0,1,0,0,0,0,0,0,0,0,2,0,1,1388,
scooby_state_1149e44|57|0 1387,0,0,0,0,0,0,1,0,0,0,0,0,0,0,1388,
scooby_state_12dfe80|58|1 1380,0,0,0,0,0,1,0,1,1,0,0,1,0,0,1384,
scooby_state_12dfe58|57|0 1382,0,0,1,0,0,0,0,0,0,1,0,0,0,0,1384,
scooby_state_1321d00|52|1 1374,0,1,0,0,0,0,0,0,0,1,0,0,0,0,1376,
scooby_state_131ae80|58|1 1374,1,0,0,0,0,0,0,1,0,0,0,0,0,0,1376,
scooby_state_12d4e80|58|1 1373,0,0,1,0,0,0,0,0,0,1,1,0,0,0,1376,
scooby_state_12d4d00|52|1 1375,0,0,0,0,0,0,0,0,0,0,0,0,0,1,1376,
scooby_state_131ae74|57|0 1374,0,1,0,0,0,0,0,0,0,0,0,1,0,0,1376,
scooby_state_131ed18|52|0 1374,0,1,0,0,0,0,1,0,0,0,0,0,0,0,1376,
scooby_state_131fcc0|51|1 1364,0,0,1,0,0,0,0,0,0,1,0,0,0,0,1366,
scooby_state_106dcc0|51|1 1184,73,3,6,6,16,8,5,5,4,4,8,7,7,27,1363,
scooby_state_10bc220|8|1 1359,0,0,0,0,0,0,0,0,0,0,0,0,0,0,1359,
scooby_state_106dc90|50|0 1354,0,0,0,0,0,1,0,0,1,0,1,0,0,0,1357,
scooby_state_13221cc|7|3 1355,0,0,0,0,0,0,0,0,0,0,2,0,0,0,1357,
scooby_state_131e9f8|39|-12 962,393,0,0,0,0,0,0,0,0,0,1,0,0,0,1356,
scooby_state_1131194|6|4 982,372,0,0,0,0,1,0,0,0,0,0,1,0,0,1356,
scooby_state_12ef080|2|0 1353,0,2,0,0,0,0,0,0,0,0,0,0,1,0,1356,
scooby_state_1113cc0|51|1 1350,0,1,0,0,1,0,0,0,0,0,0,1,0,0,1353,
scooby_state_1130b40|45|1 1347,0,0,0,0,1,0,0,0,0,0,0,0,0,0,1348,
scooby_state_1113d78|11|0 1165,6,13,73,7,8,20,7,5,8,4,7,5,6,14,1348,
scooby_state_1214240|9|1 1344,1,1,1,0,0,0,0,0,0,0,0,0,0,0,1347,
scooby_state_133c8c4|35|1 1346,1,0,0,0,0,0,0,0,0,0,0,0,0,0,1347,
scooby_state_12d58c0|35|1 1346,0,0,0,1,0,0,0,0,0,0,0,0,0,0,1347,
scooby_state_11c3b60|45|0 1315,17,0,4,1,0,1,1,0,1,1,0,4,0,2,1347,
scooby_state_1338b00|44|-7 1344,0,0,0,1,1,0,1,0,0,0,0,0,0,0,1347,
scooby_state_12d4b94|0|0 1345,0,0,0,0,0,0,1,0,0,0,0,1,0,0,1347,
scooby_state_12c9f04|60|1 1344,0,0,0,0,0,0,0,0,0,0,0,2,0,0,1346,
scooby_state_12c9240|9|1 1344,0,0,0,1,0,0,0,0,0,0,0,0,1,0,1346,
scooby_state_12d1ac0|43|1 1268,2,0,72,0,0,1,0,0,0,1,1,0,0,1,1346,
scooby_state_12c98cc|35|0 1344,0,1,0,1,0,0,0,0,0,0,0,0,0,0,1346,
scooby_state_12c9ec0|59|1 1346,0,0,0,0,0,0,0,0,0,0,0,0,0,0,1346,
scooby_state_1338b48|45|1 1280,63,0,1,0,0,0,0,0,0,0,0,1,0,0,1345,
scooby_state_10bbf94|62|2 1338,0,0,0,0,0,0,0,0,0,0,0,0,1,0,1339,
scooby_state_12c91c0|7|1 1331,0,0,0,0,0,0,0,0,1,0,0,0,0,0,1332,
scooby_state_12c9200|8|1 1331,0,0,0,0,0,0,0,0,0,0,0,0,0,1,1332,
scooby_state_1007374|52|0 1323,0,0,0,0,0,0,0,0,0,0,0,3,0,2,1328,
scooby_state_1338ac0|43|1 1324,0,0,0,0,1,0,0,0,0,0,0,1,0,0,1326,
scooby_state_1113d18|52|8 1317,0,0,0,0,0,1,0,0,0,0,2,0,0,0,1320,
scooby_state_1321e40|57|1 1307,0,0,0,0,1,1,0,0,0,1,0,0,0,0,1310,
scooby_state_10bc304|12|0 1298,0,1,1,0,0,0,0,0,0,0,0,0,0,1,1301,
scooby_state_1131270|9|3 1293,0,0,2,0,0,1,0,1,0,0,0,0,0,0,1297,
scooby_state_12cfd28|52|18 1294,0,0,0,0,2,1,0,0,0,0,0,0,0,0,1297,
scooby_state_12cfe40|57|1 1289,0,1,1,1,0,0,0,0,0,0,0,0,0,1,1293,
scooby_state_12e020c|8|6 1287,0,0,1,0,0,0,0,1,0,0,0,0,0,0,1289,
scooby_state_1136ac0|43|4 1281,1,0,0,0,1,0,0,0,0,0,0,0,0,1,1284,
scooby_state_1308b7c|45|9 1259,0,0,0,0,0,0,0,0,1,0,0,0,0,0,1260,
scooby_state_1308900|36|1 1258,0,1,0,0,0,1,0,0,0,0,0,0,0,0,1260,
scooby_state_131e900|36|1 1233,1,0,0,0,0,0,26,0,0,0,0,0,0,0,1260,
scooby_state_10075e0|53|0 1255,0,1,0,0,1,0,0,0,0,0,0,0,0,0,1257,
scooby_state_12cf920|36|0 1254,0,0,0,0,0,1,0,0,0,0,1,0,0,1,1257,
scooby_state_12d4cd8|51|1 1242,0,0,0,0,0,0,0,0,0,0,0,0,0,0,1242,
scooby_state_131ecc0|51|1 944,1,0,0,1,0,0,0,0,0,0,0,295,0,1,1242,
scooby_state_12cfe08|56|2 1231,0,0,1,1,0,0,0,0,0,0,0,0,0,1,1234,
scooby_state_10747b8|11|0 1205,6,0,0,0,0,0,0,1,0,0,0,0,0,1,1213,
scooby_state_1214200|8|0 1208,0,0,0,0,0,0,0,0,0,1,0,0,0,1,1210,
scooby_state_12c9900|36|1 1199,0,0,1,0,0,0,0,1,0,0,0,0,0,1,1202,
scooby_state_12d5900|36|1 1199,0,0,0,0,0,0,0,0,0,0,2,1,0,0,1202,
scooby_state_133c900|36|1 1127,66,1,0,1,1,0,0,1,0,1,2,0,0,1,1201,
scooby_state_1326328|12|0 1195,0,0,0,2,0,0,0,0,0,0,0,0,1,0,1198,
scooby_state_12d4b80|46|1 1175,0,0,0,0,0,1,0,0,0,0,0,1,1,0,1178,
scooby_state_12d4bd4|47|1 1178,0,0,0,0,0,0,0,0,0,0,0,0,0,0,1178,
scooby_state_131fbc0|47|1 1166,0,0,0,1,0,0,0,0,1,0,0,9,0,1,1178,
scooby_state_131ebc0|47|1 1152,22,0,0,0,1,0,1,0,0,0,1,1,0,0,1178,
scooby_state_131eb84|46|2 1176,1,0,0,0,0,0,1,0,0,0,0,0,0,0,1178,
scooby_state_1308b80|46|1 1175,0,0,0,0,0,0,1,1,0,1,0,0,0,0,1178,
scooby_state_1001340|13|1 1175,0,0,0,0,0,0,0,0,0,0,0,1,0,0,1176,
scooby_state_1007340|13|1 1164,0,1,0,0,0,0,0,1,0,0,0,1,0,0,1167,
scooby_state_1338cc0|51|2 1159,1,0,1,0,0,1,0,0,1,0,0,1,1,1,1166,
scooby_state_12d4c8c|50|1 1161,0,0,0,0,0,0,0,0,1,0,0,0,0,0,1162,
scooby_state_1131580|22|13 1108,25,5,0,0,2,5,0,1,0,1,0,1,0,0,1148,
scooby_state_1322340|13|1 1136,1,0,0,1,0,0,0,1,0,0,0,0,0,0,1139,
scooby_state_10d3b50|45|1 1085,1,2,7,1,0,5,2,1,1,0,30,0,0,0,1135,
scooby_state_131fc58|49|0 1133,0,0,0,1,0,0,0,0,0,0,0,0,0,0,1134,
scooby_state_10d3b00|44|1 1085,43,2,1,0,0,0,0,0,0,0,0,0,0,0,1131,
scooby_state_103bf00|60|1 1126,0,0,0,0,0,0,0,0,0,0,0,0,0,2,1128,
scooby_state_111422c|8|0 1122,1,0,0,0,0,0,0,0,0,0,0,0,0,0,1123,
scooby_state_12d4a98|42|-14 1122,0,0,0,0,0,0,0,0,0,0,1,0,0,0,1123,
scooby_state_1114240|9|1 1121,0,0,0,0,0,0,0,0,0,0,0,0,0,0,1121,
scooby_state_1113d6c|53|1 1118,0,0,0,0,0,0,0,0,2,0,0,0,0,0,1120,
scooby_state_131ad70|53|-5 1112,0,0,1,0,1,0,0,0,0,0,0,1,0,0,1115,
scooby_state_1321d40|53|1 1113,0,0,1,0,0,0,0,0,0,0,0,0,0,0,1114,
scooby_state_131ed40|53|1 1112,1,0,0,0,0,0,0,0,0,0,0,1,0,0,1114,
scooby_state_104bb00|44|1 1106,0,0,1,0,0,0,0,0,0,0,0,0,0,0,1107,
scooby_state_1113d80|54|1 1092,0,1,1,0,1,2,1,1,0,0,0,0,0,1,1100,
scooby_state_1321d80|54|1 756,336,0,0,0,0,1,1,2,1,0,0,1,0,0,1098,
scooby_state_10018c0|35|1 1083,3,6,0,0,0,1,0,0,0,0,0,0,0,0,1093,
scooby_state_1002100|4|0 1000,77,1,2,2,1,0,0,0,0,1,1,0,1,2,1088,
scooby_state_12eed00|52|1 1087,0,0,0,0,0,0,0,0,0,0,0,0,0,0,1087,
scooby_state_131ad80|54|1 1085,1,0,0,0,0,0,1,0,0,0,0,0,0,0,1087,
scooby_state_103bf2c|1|0 1073,0,0,0,1,0,1,0,0,1,0,0,0,0,0,1076,
scooby_state_12dffac|62|1 1073,2,0,0,0,0,0,0,0,0,0,0,0,0,0,1075,
scooby_state_1321f80|62|1 1071,4,0,0,0,0,0,0,0,0,0,0,0,0,0,1075,
scooby_state_105aec0|59|1 1041,0,32,0,0,0,1,0,0,0,0,1,0,0,0,1075,
scooby_state_103c1a4|6|2 1071,1,0,0,0,1,0,0,1,0,1,0,0,0,0,1075,
scooby_state_105ab70|45|0 1074,0,0,0,0,0,0,0,0,1,0,0,0,0,0,1075,
scooby_state_12cf340|13|1 1065,0,0,10,0,0,0,0,0,0,0,0,0,0,0,1075,
scooby_state_1149f4c|61|1 1072,0,0,1,1,0,0,0,0,0,0,0,0,0,1,1075,
scooby_state_1149f80|62|1 1073,0,0,0,0,0,0,0,0,1,0,0,1,0,0,1075,
scooby_state_105ae80|58|1 1071,1,0,0,1,0,0,1,1,0,0,0,0,0,0,1075,
scooby_state_1321f68|61|1 1073,0,0,0,0,0,0,2,0,0,0,0,0,0,0,1075,
scooby_state_1321dec|55|1 1071,0,0,0,1,0,0,1,0,0,0,0,0,0,0,1073,
scooby_state_104bafc|43|-8 1072,0,1,0,0,0,0,0,0,0,0,0,0,0,0,1073,
scooby_state_129731c|12|-22 1071,0,0,0,0,0,0,0,0,1,0,0,0,0,1,1073,
scooby_state_12dff40|61|1 1071,0,0,0,0,0,0,1,0,0,0,1,0,0,0,1073,
scooby_state_1322280|10|1 1064,1,0,0,1,0,0,0,0,1,1,0,0,0,0,1068,
scooby_state_12eef90|62|8 1060,0,2,0,0,0,1,0,0,0,1,1,1,0,0,1066,
scooby_state_1321e34|56|1 1063,0,0,0,0,0,2,0,0,0,0,0,0,0,0,1065,
scooby_state_131fb88|46|-3 1059,0,1,0,3,0,0,0,0,0,0,0,0,0,0,1063,
scooby_state_12975e4|11|0 1059,0,0,0,0,0,0,0,0,0,0,0,1,0,0,1060,
scooby_state_103bf40|61|1 1047,0,0,0,0,0,0,0,2,0,0,0,0,0,0,1049,
scooby_state_12d4b98|1|0 1045,1,0,0,0,1,0,0,0,0,0,0,0,0,0,1047,
scooby_state_12d4d44|53|1 1043,0,0,0,0,0,0,0,0,0,0,0,0,0,0,1043,
scooby_state_1007344|47|0 1037,0,0,0,1,0,0,0,2,0,0,1,0,0,0,1041,
scooby_state_1001080|2|-5 1040,0,0,0,0,0,0,0,0,0,0,0,0,0,0,1040,
scooby_state_12d4e00|56|1 1035,1,0,0,0,0,0,0,0,1,1,0,0,0,0,1038,
scooby_state_104c584|22|0 1024,8,1,0,0,0,0,4,0,0,0,0,0,0,0,1037,
scooby_state_1214264|4|0 1032,1,1,0,0,0,0,0,0,1,0,0,0,0,0,1035,
scooby_state_105ad80|54|2 1031,0,0,0,0,1,0,1,0,0,0,0,0,0,0,1033,
scooby_state_105ad00|52|1 1033,0,0,0,0,0,0,0,0,0,0,0,0,0,0,1033,
scooby_state_fc0b5320|12|0 993,2,30,0,0,0,0,1,0,0,0,0,0,0,0,1026,
scooby_state_12eb114|8|0 1019,0,0,0,1,0,0,0,0,0,1,0,2,1,0,1024,
scooby_state_1344094|2|0 1018,0,0,0,1,0,0,0,0,0,0,1,0,1,0,1021,
scooby_state_12cfd4c|53|1 1018,1,0,0,0,0,0,0,1,0,0,0,0,0,0,1020,
scooby_state_105acdc|51|2 1014,1,0,0,0,0,0,0,0,0,0,0,0,0,0,1015,
scooby_state_133c920|54|0 1012,1,1,0,0,0,0,0,0,0,0,0,0,0,0,1014,
scooby_state_105ae40|57|1 1013,0,0,0,0,0,0,0,0,0,0,0,0,0,0,1013,
scooby_state_131fc20|48|1 1005,0,0,0,0,0,1,0,0,0,0,0,1,0,0,1007,
scooby_state_104c680|26|0 1005,0,1,0,0,1,0,0,0,0,0,0,0,0,0,1007,
scooby_state_12d4c00|48|1 1006,0,0,0,0,0,0,0,0,0,0,0,0,0,0,1006,
scooby_state_131ec00|48|1 1005,0,0,0,0,0,0,0,0,1,0,0,0,0,0,1006,
scooby_state_12d4c40|49|1 1003,0,1,0,1,0,0,0,0,0,0,0,0,0,0,1005,
scooby_state_131adc0|55|1 1004,0,0,0,0,0,0,0,0,0,0,0,0,0,0,1004,
scooby_state_12c9190|8|-22 895,66,1,1,1,1,1,1,16,0,0,2,0,1,17,1003,
scooby_state_12c9f80|62|1 1001,0,0,0,0,0,0,0,1,1,0,0,0,0,0,1003,
scooby_state_12c9f5c|61|49 1002,0,0,0,1,0,0,0,0,0,0,0,0,0,0,1003,
scooby_state_12d4e78|57|4 999,1,0,0,1,0,0,0,0,0,0,0,0,0,0,1001,
scooby_state_131ae20|56|1 998,0,0,1,0,0,0,0,1,0,0,0,0,0,0,1000,
scooby_state_12136b8|26|0 997,0,0,1,0,0,0,0,0,0,0,0,0,0,0,998,
scooby_state_1214280|10|1 986,3,3,2,0,0,0,0,0,1,0,0,0,0,0,995,
scooby_state_12eed40|53|1 986,0,0,0,2,0,0,0,1,0,0,0,0,0,0,989,
scooby_state_b8e259dc|39|0 948,1,4,3,5,1,4,1,2,1,2,2,3,2,7,986,
scooby_state_b8e23f00|60|1 921,0,33,1,1,0,1,1,0,1,1,1,25,0,0,986,
scooby_state_fc0aed00|52|1 984,0,0,1,0,0,0,1,0,0,0,0,0,0,0,986,
scooby_state_fc0aed40|53|1 982,0,0,0,0,0,0,0,0,0,2,1,0,1,0,986,
scooby_state_131ecb0|50|-3 981,1,0,0,0,1,1,0,0,0,0,0,1,0,0,985,
scooby_state_fc0aece4|51|1 769,209,0,0,0,0,0,0,0,0,0,0,0,0,0,978,
scooby_state_12eed94|54|1 916,1,0,56,0,0,0,0,0,0,0,0,0,0,0,973,
scooby_state_b8e23d50|53|0 970,0,0,0,0,0,0,0,0,1,0,0,0,0,0,971,
scooby_state_1338c40|49|1 969,0,0,0,0,0,1,0,0,0,0,1,0,0,0,971,
scooby_state_fc0aed80|54|1 970,0,0,0,0,0,0,0,0,0,0,0,0,0,0,970,
scooby_state_105ab80|46|1 968,0,0,0,0,1,1,0,0,0,0,0,0,0,0,970,
scooby_state_105abc0|47|1 967,0,1,0,1,0,0,0,1,0,0,0,0,0,0,970,
scooby_state_fc18bd00|52|1 968,0,0,0,0,0,0,1,0,0,0,0,0,0,0,969,
scooby_state_fc191f80|62|1 967,0,0,0,0,0,0,0,2,0,0,0,0,0,0,969,
scooby_state_fc191f30|60|0 968,0,0,0,0,0,0,0,0,0,0,0,1,0,0,969,
scooby_state_fc18bb40|45|1 968,0,0,0,0,0,0,0,0,1,0,0,0,0,0,969,
scooby_state_fc1170ac|2|0 969,0,0,0,0,0,0,0,0,0,0,0,0,0,0,969,
scooby_state_fc18bb00|44|1 967,0,0,0,0,0,0,0,0,2,0,0,0,0,0,969,
scooby_state_fc18baf8|43|0 968,0,0,0,0,0,0,0,0,1,0,0,0,0,0,969,
scooby_state_fc192210|8|0 968,0,0,0,0,0,0,0,0,0,1,0,0,0,0,969,
scooby_state_fc192264|9|1 965,1,0,0,0,1,0,0,0,0,1,0,1,0,0,969,
scooby_state_fc18bf00|60|1 880,32,3,1,0,1,1,17,2,0,0,30,0,0,2,969,
scooby_state_fc191f40|61|1 969,0,0,0,0,0,0,0,0,0,0,0,0,0,0,969,
scooby_state_fc18bec0|59|1 968,0,1,0,0,0,0,0,0,0,0,0,0,0,0,969,
scooby_state_1175f64|61|0 966,0,0,0,0,1,0,0,0,0,0,1,0,0,0,968,
scooby_state_b8e36118|4|0 951,16,0,0,0,0,0,0,0,0,0,0,0,1,0,968,
scooby_state_1175f80|62|1 965,0,0,0,1,0,0,0,0,1,0,1,0,0,0,968,
scooby_state_ff332d34|52|0 951,14,0,0,0,0,0,1,1,0,0,0,0,0,1,968,
scooby_state_fc18b8c0|35|1 967,0,1,0,0,0,0,0,0,0,0,0,0,0,0,968,
scooby_state_fc191ec0|59|1 967,0,0,0,0,1,0,0,0,0,0,0,0,0,0,968,
scooby_state_fc116fb0|62|0 966,0,0,0,0,0,0,1,0,1,0,0,0,0,0,968,
scooby_state_1176240|9|1 898,29,39,0,0,0,0,0,0,1,0,0,0,0,0,967,
scooby_state_fc18bd40|53|1 964,0,0,0,0,1,0,0,0,0,0,0,1,0,1,967,
scooby_state_fc18bcc0|51|1 961,0,0,0,0,0,0,0,0,0,2,0,0,0,0,963,
scooby_state_131fc80|50|2 962,0,1,0,0,0,0,0,0,0,0,0,0,0,0,963,
scooby_state_ff2cecc4|51|0 960,0,0,0,1,1,0,0,0,1,0,0,0,0,0,963,
scooby_state_fc18bea4|0|0 958,0,0,0,0,1,1,0,0,0,0,0,0,0,0,960,
scooby_state_12cfd80|54|1 955,1,0,0,0,1,0,0,0,0,0,0,0,0,0,957,
scooby_state_1322100|4|1 917,34,0,0,0,0,0,0,0,0,0,0,1,0,1,953,
scooby_state_10010c0|3|1 951,0,0,1,0,0,0,0,0,1,0,0,0,0,0,953,
scooby_state_12d5880|34|0 947,0,0,1,0,0,0,0,0,0,0,0,0,0,0,948,
scooby_state_104bcf8|51|45 897,0,41,0,0,0,0,0,0,0,0,0,6,1,1,946,
scooby_state_1297340|13|1 941,0,0,0,0,0,1,0,0,0,0,0,1,1,0,944,
scooby_state_fc03c014|0|0 943,0,1,0,0,0,0,0,0,0,0,0,0,0,0,944,
scooby_state_103c104|4|1 940,0,2,0,0,0,0,0,0,0,0,0,0,0,0,942,
scooby_state_103c0e4|3|0 938,0,1,0,1,1,0,0,0,0,0,0,1,0,0,942,
scooby_state_12150c0|3|1 942,0,0,0,0,0,0,0,0,0,0,0,0,0,0,942,
scooby_state_fc18bd90|54|9 936,1,0,0,0,1,0,1,0,1,0,1,0,0,0,941,
scooby_state_1176200|8|1 938,1,0,0,0,0,1,0,0,0,0,0,0,0,0,940,
scooby_state_11761c0|7|1 939,0,0,0,0,0,0,0,0,0,0,0,0,0,1,940,
scooby_state_10bc1c8|7|0 924,0,11,1,0,0,0,0,0,0,0,0,0,0,0,936,
scooby_state_fc191e80|58|1 931,0,0,1,0,1,0,0,1,0,0,0,0,0,0,934,
scooby_state_12cf438|52|0 861,64,0,1,1,1,1,1,0,0,0,1,0,0,0,931,
scooby_state_fc18be80|58|1 925,1,0,0,0,0,0,0,0,0,0,0,0,0,1,927,
scooby_state_fc191e40|57|1 913,1,1,1,0,0,0,0,0,0,0,0,0,0,0,916,
scooby_state_fc18be40|57|1 906,0,0,0,1,0,0,0,0,0,0,0,1,0,0,908,
scooby_state_fc03ce20|56|0 906,0,0,0,0,0,0,0,0,0,0,0,0,1,0,907,
scooby_state_104aea8|58|0 904,0,0,0,0,0,2,0,0,0,0,0,0,0,0,906,
scooby_state_1302414|30|0 840,45,3,0,0,1,0,1,1,1,1,2,2,1,3,901,
scooby_state_105adc0|55|1 897,0,0,0,0,0,0,0,0,0,0,0,0,0,0,897,
scooby_state_105ae28|56|1 897,0,0,0,0,0,0,0,0,0,0,0,0,0,0,897,
scooby_state_10d3af0|43|0 894,0,0,0,1,1,0,0,0,0,0,0,0,0,0,896,
scooby_state_131e680|26|-10 893,0,0,0,0,1,0,0,0,0,0,0,0,0,0,894,
scooby_state_1326348|13|0 888,0,0,1,1,1,0,0,0,0,0,0,0,0,0,891,
scooby_state_1113bc0|47|1 760,0,85,37,0,0,0,1,0,0,0,0,0,0,0,883,
scooby_state_12eeb08|44|10 879,0,1,1,0,0,1,0,0,0,0,0,0,0,0,882,
scooby_state_1215180|6|1 872,0,0,0,0,0,0,0,1,1,0,0,0,0,0,874,
scooby_state_1113c98|50|0 870,0,0,0,0,0,0,0,0,0,0,0,0,0,0,870,
scooby_state_12eb128|0|-8 864,1,1,0,0,0,0,0,0,0,0,0,0,1,0,867,
scooby_state_1176180|6|0 866,0,0,0,0,0,0,0,0,0,0,0,0,0,0,866,
scooby_state_1130b80|46|1 864,0,0,0,1,0,0,0,0,0,0,0,1,0,0,866,
scooby_state_1113bbc|46|0 863,0,0,0,1,0,0,0,1,0,0,0,0,0,0,865,
scooby_state_1130c4c|49|3 861,0,0,0,1,0,0,1,0,0,0,0,0,0,0,863,
scooby_state_fc1170c0|3|1 840,15,2,1,2,1,1,0,0,0,0,0,0,0,0,862,
scooby_state_12dffc0|63|1 858,3,0,0,0,0,0,0,1,0,0,0,0,0,0,862,
scooby_state_103c1c0|7|1 810,51,0,0,0,0,1,0,0,0,0,0,0,0,0,862,
scooby_state_12d1904|36|2 852,0,0,0,0,0,0,1,0,1,0,0,0,0,0,854,
scooby_state_fc19211c|4|1 852,0,0,0,0,0,0,0,0,0,0,0,0,0,0,852,
scooby_state_12d1bf8|47|11 729,122,1,0,0,0,0,0,0,0,0,0,0,0,0,852,
scooby_state_1130b68|28|0 850,0,0,1,0,0,0,0,0,0,0,0,0,0,0,851,
scooby_state_12e0180|6|1 849,0,0,0,0,1,0,0,0,0,0,0,0,0,0,850,
scooby_state_105ac24|48|1 847,0,0,0,0,0,0,0,0,0,0,0,0,1,0,848,
scooby_state_12e0174|5|0 846,0,0,0,0,1,0,0,0,0,0,0,0,0,0,847,
scooby_state_12eb110|4|0 847,0,0,0,0,0,0,0,0,0,0,0,0,0,0,847,
scooby_state_105ac40|49|1 847,0,0,0,0,0,0,0,0,0,0,0,0,0,0,847,
scooby_state_10074e0|54|0 793,44,5,0,0,0,0,1,0,0,1,0,0,0,1,845,
scooby_state_132202c|0|0 843,0,0,0,0,0,0,0,0,1,1,0,0,0,0,845,
scooby_state_12e000c|0|-6 841,0,0,0,0,0,1,0,0,0,0,0,0,0,0,842,
scooby_state_1007580|22|1 841,0,0,0,0,0,0,1,0,0,0,0,0,0,0,842,
scooby_state_131e580|22|1 840,0,0,0,0,0,0,0,0,0,0,0,0,1,0,841,
scooby_state_104b180|6|0 837,1,0,1,0,0,0,0,0,0,0,0,0,1,0,840,
scooby_state_1298a80|42|1 838,0,0,0,0,0,1,0,0,0,0,0,0,0,0,839,
scooby_state_104c5c0|23|1 836,0,0,1,0,1,0,0,0,0,0,0,0,0,0,838,
scooby_state_1320318|12|0 832,0,1,0,0,0,0,0,0,0,0,0,0,0,0,833,
scooby_state_133c9c0|39|1 820,12,0,0,0,0,0,0,0,1,0,0,0,0,0,833,
scooby_state_10aba64|41|0 804,17,10,0,0,0,0,0,0,0,0,0,0,1,0,832,
scooby_state_12c9ea8|58|20 820,10,0,0,0,0,0,1,0,1,0,0,0,0,0,832,
scooby_state_12c9300|12|-48 798,0,0,5,0,3,7,0,2,7,6,0,0,0,3,831,
scooby_state_10bc00c|0|-12 789,40,1,0,0,0,0,0,0,0,0,1,0,0,0,831,
scooby_state_1008ac0|43|1 829,0,0,0,0,0,0,0,0,0,0,0,0,0,0,829,
scooby_state_1001880|34|31 827,0,0,0,0,0,0,0,0,0,0,0,0,0,1,828,
scooby_state_10aba80|42|1 827,0,0,0,0,0,0,0,0,0,0,0,0,0,0,827,
scooby_state_114b000|0|0 823,0,0,0,0,1,1,0,0,0,0,0,0,1,0,826,
scooby_state_1007580|22|0 785,1,2,4,9,8,3,2,2,1,1,1,1,1,2,823,
scooby_state_10075c0|23|1 821,0,0,0,0,1,0,0,0,0,0,0,0,0,0,822,
scooby_state_131ea80|42|1 816,1,0,0,0,0,0,0,1,0,0,0,0,0,0,818,
scooby_state_1338c38|48|0 816,0,0,0,0,0,0,0,0,0,0,0,0,0,0,816,
scooby_state_1338a80|42|1 810,0,0,0,1,0,0,0,1,0,0,0,0,0,0,812,
scooby_state_12ee340|13|1 810,0,0,0,0,0,0,0,0,0,0,0,0,0,0,810,
scooby_state_1298a48|2|1 802,0,0,0,0,2,0,0,1,0,0,0,0,0,0,805,
scooby_state_10747b8|30|0 797,8,0,0,0,0,0,0,0,0,0,0,0,0,0,805,
scooby_state_104aee0|59|1 800,0,0,0,0,0,0,0,1,0,1,0,0,0,0,802,
scooby_state_104afac|62|3 722,1,0,1,1,0,0,0,1,0,0,0,75,0,0,801,
scooby_state_131e57c|21|-5 793,0,0,0,0,0,0,0,0,1,1,0,0,0,0,795,
scooby_state_129760c|63|0 791,0,0,1,0,0,0,0,0,0,0,1,0,0,0,793,
scooby_state_12e008c|2|1 792,0,0,0,0,0,0,0,0,0,0,0,0,0,0,792,
scooby_state_12d188c|34|3 760,0,0,0,1,30,0,0,0,0,0,0,0,0,1,792,
scooby_state_12d1b58|45|6 790,0,0,0,0,0,0,0,0,0,0,0,0,0,0,790,
scooby_state_11315cc|23|1 788,0,1,0,0,0,0,0,0,1,0,0,0,0,0,790,
scooby_state_111f5c0|23|0 786,1,0,0,0,1,0,0,0,0,0,1,0,0,0,789,
scooby_state_12cffd0|63|6 784,0,0,0,0,1,0,0,0,0,1,0,0,0,0,786,
scooby_state_fc18bc74|49|-11 785,0,0,0,0,0,0,0,0,0,0,0,0,0,0,785,
scooby_state_fc18bc80|50|1 785,0,0,0,0,0,0,0,0,0,0,0,0,0,0,785,
scooby_state_fc03c148|5|3 779,2,0,1,0,0,0,0,0,1,0,0,0,0,0,783,
scooby_state_12cc7a0|30|0 777,1,0,0,0,1,0,0,0,1,0,0,0,0,0,780,
scooby_state_1001180|6|-33 776,0,1,1,0,0,0,0,0,0,0,0,0,0,0,778,
scooby_state_13220f8|3|2 776,0,0,0,0,0,0,0,0,0,0,0,0,0,0,776,
scooby_state_fc116fc0|63|1 756,0,3,0,1,0,0,1,1,1,1,2,1,1,8,776,
scooby_state_fc191fc0|63|1 731,30,3,1,2,2,1,0,0,0,1,2,0,0,3,776,
scooby_state_1175fc0|63|1 776,0,0,0,0,0,0,0,0,0,0,0,0,0,0,776,
scooby_state_fc04d500|20|0 770,0,0,0,0,0,0,0,0,0,1,0,1,0,0,772,
scooby_state_12ee7c0|31|1 769,0,0,2,0,0,0,0,1,0,0,0,0,0,0,772,
scooby_state_12e0040|1|1 770,0,0,0,0,0,0,0,0,0,0,0,0,0,0,770,
scooby_state_1322040|1|1 709,0,9,1,0,1,47,0,1,1,0,0,0,0,0,769,
scooby_state_12cb580|22|1 766,0,1,0,1,0,1,0,0,0,0,0,0,0,0,769,
scooby_state_fc192140|5|1 765,0,0,0,0,0,0,0,0,1,0,0,0,0,0,766,
scooby_state_fc192190|6|1 763,0,0,0,0,1,0,0,1,0,0,0,0,1,0,766,
scooby_state_1007540|21|1 763,0,0,0,0,0,0,0,0,0,0,0,1,0,0,764,
scooby_state_12eb140|5|1 762,0,0,0,0,0,0,0,1,0,0,1,0,0,0,764,
scooby_state_ff2c951c|20|0 762,1,0,0,0,0,0,0,1,0,0,0,0,0,0,764,
scooby_state_12977d4|31|0 759,1,0,0,0,0,0,0,1,0,1,0,0,0,0,762,
scooby_state_1114290|10|1 696,0,12,1,1,1,1,2,2,0,0,44,0,1,1,762,
scooby_state_13088d8|32|2 758,0,0,0,0,0,0,0,0,0,0,0,0,0,0,758,
scooby_state_12975c4|36|0 754,0,1,0,0,0,0,0,1,0,1,0,0,0,0,757,
scooby_state_1215140|5|0 754,0,0,0,0,0,0,0,0,0,0,0,0,0,0,754,
scooby_state_1008c80|50|1 751,0,1,0,0,1,0,0,0,0,0,0,0,0,0,753,
scooby_state_fc0aec80|50|0 752,0,0,0,0,0,0,0,0,0,0,0,0,0,0,752,
scooby_state_12c88c0|35|1 750,0,0,0,0,0,0,0,0,0,0,0,0,1,0,751,
scooby_state_1298a44|41|0 744,0,0,0,0,0,0,0,0,0,0,1,0,2,0,747,
scooby_state_1136a80|42|1 746,0,0,0,0,0,0,0,0,0,0,0,0,0,0,746,
scooby_state_12d1abc|42|1 745,0,0,0,0,0,0,0,0,0,0,1,0,0,0,746,
scooby_state_12d17c0|31|1 741,0,1,1,0,0,0,0,0,1,0,1,0,0,0,745,
scooby_state_1136a70|41|-2 744,0,0,0,0,0,0,0,0,0,0,0,0,0,0,744,
scooby_state_1215080|2|1 744,0,0,0,0,0,0,0,0,0,0,0,0,0,0,744,
scooby_state_121518c|63|17 742,0,0,0,1,0,0,0,0,0,0,0,0,0,0,743,
scooby_state_fc03c000|0|-56 740,1,1,0,0,0,0,0,0,0,1,0,0,0,0,743,
scooby_state_12d1740|29|3 737,1,0,0,0,0,1,0,0,0,0,0,0,1,0,740,
scooby_state_10747c0|31|1 733,3,1,1,0,0,0,1,0,0,0,0,0,0,0,739,
scooby_state_1214230|45|0 736,0,1,0,0,0,0,1,0,0,0,0,0,0,0,738,
scooby_state_12ee780|30|1 737,1,0,0,0,0,0,0,0,0,0,0,0,0,0,738,
scooby_state_12cb48c|18|0 734,1,0,0,0,0,1,1,0,0,0,0,0,0,0,737,
scooby_state_12cb5f8|23|1 737,0,0,0,0,0,0,0,0,0,0,0,0,0,0,737,
scooby_state_12ee7b8|47|-1 733,0,0,0,0,0,1,1,0,0,0,0,0,0,0,735,
scooby_state_12c91b4|6|-30 731,0,0,1,0,0,0,0,1,0,0,0,0,0,1,734,
scooby_state_12cf880|34|16 589,0,0,1,0,0,0,142,0,0,0,0,0,0,0,732,
scooby_state_12975ec|44|0 728,1,0,0,0,0,0,0,0,0,0,0,0,0,0,729,
scooby_state_133c7d0|31|1 727,0,0,0,0,0,0,1,0,0,0,0,0,0,0,728,
scooby_state_12c88a4|46|-6 553,1,154,1,3,1,1,2,1,0,0,3,2,1,4,727,
scooby_state_1001b00|44|0 716,0,0,1,1,0,0,0,0,0,0,0,0,0,0,718,
scooby_state_fc18b8a0|34|-19 716,0,0,0,0,0,0,0,0,0,0,0,0,0,0,716,
scooby_state_1214240|46|1 712,0,0,0,0,0,1,0,0,0,0,0,1,0,0,714,
scooby_state_12d17a8|30|1 710,0,0,0,0,1,0,0,0,0,0,0,0,0,0,711,
scooby_state_12c9284|10|1 711,0,0,0,0,0,0,0,0,0,0,0,0,0,0,711,
scooby_state_12cc7c0|31|1 711,0,0,0,0,0,0,0,0,0,0,0,0,0,0,711,
scooby_state_fc03c080|2|1 499,0,210,0,0,0,0,0,0,0,0,0,0,0,1,710,
scooby_state_103c170|5|-2 677,2,0,28,0,0,1,1,0,0,0,0,0,0,0,709,
scooby_state_fc0aedc4|55|1 708,0,0,0,0,0,0,0,0,0,0,0,0,0,0,708,
scooby_state_fc195598|22|0 706,0,0,0,0,0,0,0,0,0,0,0,0,0,0,706,
scooby_state_10066ec|27|0 704,0,0,0,0,0,1,0,0,0,0,0,0,0,0,705,
scooby_state_fc0aee00|56|1 697,0,1,0,0,0,1,0,0,0,0,1,0,0,0,700,
scooby_state_fc03c048|1|1 695,1,0,0,0,0,0,0,0,0,0,0,0,1,2,699,
scooby_state_133c780|30|1 693,0,0,0,0,0,0,0,0,0,1,1,0,0,0,695,
scooby_state_fc18bce4|11|0 692,0,0,0,0,0,1,0,0,0,0,0,0,0,0,693,
scooby_state_fc03c040|1|1 688,0,0,0,0,0,0,0,0,0,1,0,0,0,0,689,
scooby_state_fc18bdc0|55|1 688,0,0,0,0,0,0,0,0,0,0,0,0,0,0,688,
scooby_state_11369c8|39|0 688,0,0,0,0,0,0,0,0,0,0,0,0,0,0,688,
scooby_state_fc117040|1|1 687,0,0,0,0,0,0,0,0,0,0,0,0,0,0,687,
scooby_state_12ee798|48|0 682,0,0,0,0,0,0,0,1,0,0,0,0,0,1,684,
scooby_state_fc18be00|56|1 684,0,0,0,0,0,0,0,0,0,0,0,0,0,0,684,
scooby_state_12975c0|23|1 683,0,0,0,0,0,0,0,0,0,0,0,0,0,0,683,
scooby_state_fc191e00|56|1 681,0,0,0,0,0,0,1,0,0,0,0,0,0,0,682,
scooby_state_12141b0|6|0 495,10,11,11,14,29,10,14,12,11,10,11,5,11,25,679,
scooby_state_12d1984|38|-9 676,0,0,0,0,0,0,0,0,0,0,0,1,0,0,677,
scooby_state_1176100|4|1 671,0,0,0,1,1,0,3,0,0,1,0,0,0,0,677,
scooby_state_1297588|22|2 670,4,0,0,1,0,0,0,1,0,0,0,0,0,0,676,
scooby_state_133c750|29|0 674,0,0,0,0,0,0,0,0,0,0,0,0,0,0,674,
scooby_state_131ea40|41|2 661,7,0,0,0,0,0,0,0,0,0,0,0,0,0,668,
scooby_state_12c9920|2|0 663,1,0,0,0,1,0,0,0,0,0,0,0,0,0,665,
scooby_state_1113c00|48|1 541,1,7,1,2,1,1,1,1,1,1,97,2,4,3,664,
scooby_state_10014c0|19|1 658,0,0,0,1,0,0,1,0,0,0,0,0,0,0,660,
scooby_state_1176068|1|1 296,358,1,0,1,0,1,1,1,0,0,0,0,0,0,659,
scooby_state_1008c40|49|0 657,0,0,0,0,0,0,0,1,0,0,1,0,0,0,659,
scooby_state_12d19c0|39|1 655,0,0,0,0,0,0,0,0,0,1,0,1,0,0,657,
scooby_state_1297780|30|1 656,0,0,0,0,0,0,0,0,0,0,0,1,0,0,657,
scooby_state_12c9980|38|28 651,1,1,0,0,0,0,1,0,0,0,0,0,0,0,654,
scooby_state_12d1a50|41|-4 651,0,0,0,0,0,1,0,0,0,0,0,0,1,0,653,
scooby_state_131e8a4|34|-15 651,1,0,0,0,0,0,1,0,0,0,0,0,0,0,653,
scooby_state_131ec70|49|1 653,0,0,0,0,0,0,0,0,0,0,0,0,0,0,653,
scooby_state_132233c|12|2 651,0,0,0,0,0,0,0,0,0,0,0,0,0,0,651,
scooby_state_1074538|4|-7 558,25,63,0,0,0,0,0,0,0,1,1,1,0,0,649,
scooby_state_12136c0|27|1 649,0,0,0,0,0,0,0,0,0,0,0,0,0,0,649,
scooby_state_10059c0|39|1 648,0,0,0,0,0,0,0,0,0,0,0,0,0,0,648,
scooby_state_12ee730|28|-32 641,7,0,0,0,0,0,0,0,0,0,0,0,0,0,648,
scooby_state_1005980|38|0 647,1,0,0,0,0,0,0,0,0,0,0,0,0,0,648,
scooby_state_fc03b998|54|0 646,0,0,0,0,0,0,0,0,0,0,0,0,0,0,646,
scooby_state_fc127e5c|58|1 644,0,0,0,1,0,0,0,0,0,0,0,0,0,0,645,
scooby_state_113171c|28|5 645,0,0,0,0,0,0,0,0,0,0,0,0,0,0,645,
scooby_state_12eecd8|51|-10 644,0,0,0,0,0,0,0,0,0,0,0,0,1,0,645,
scooby_state_133c980|38|0 642,0,0,0,0,0,0,1,0,0,0,0,0,0,1,644,
scooby_state_12cf448|30|0 644,0,0,0,0,0,0,0,0,0,0,0,0,0,0,644,
scooby_state_12cf318|12|-24 642,0,1,0,0,0,0,0,0,0,0,0,0,0,0,643,
scooby_state_1006700|28|1 642,0,0,0,0,0,1,0,0,0,0,0,0,0,0,643,
scooby_state_104c658|55|0 637,0,0,0,0,0,0,0,0,0,0,0,0,0,0,637,
scooby_state_fc127e5c|17|1 628,0,0,0,0,0,0,0,0,0,0,0,0,0,0,628,
scooby_state_1007308|12|-14 623,0,1,0,1,0,0,0,0,0,1,0,1,0,1,628,
scooby_state_12ee740|29|1 623,1,0,1,0,0,0,0,0,0,0,0,0,0,0,625,
scooby_state_fc127e5c|40|1 624,0,1,0,0,0,0,0,0,0,0,0,0,0,0,625,
scooby_state_102227c|1|0 595,2,25,0,0,0,1,0,0,0,1,0,0,0,0,624,
scooby_state_fc127e5c|10|1 621,0,0,0,0,0,0,0,0,0,1,0,0,0,0,622,
scooby_state_12cf318|12|-4 620,0,0,0,0,0,0,0,0,1,0,0,0,0,0,621,
scooby_state_fc127e5c|9|1 618,0,0,0,0,0,2,0,0,0,0,0,0,1,0,621,
scooby_state_114f418|16|0 620,0,0,0,0,0,0,0,0,0,0,0,0,0,0,620,
scooby_state_fc127e5c|23|1 618,0,0,0,0,1,0,0,0,0,0,0,0,0,0,619,
scooby_state_12d4db8|54|0 619,0,0,0,0,0,0,0,0,0,0,0,0,0,0,619,
scooby_state_fc192288|10|1 617,0,0,0,0,0,0,0,0,0,0,0,0,0,0,617,
scooby_state_12d4dc0|55|1 617,0,0,0,0,0,0,0,0,0,0,0,0,0,0,617,
scooby_state_fc127e5c|50|1 617,0,0,0,0,0,0,0,0,0,0,0,0,0,0,617,
scooby_state_fc127e5c|48|1 612,0,1,0,0,0,0,0,1,0,0,0,0,1,0,615,
scooby_state_fc03bc20|48|0 609,0,0,1,0,0,0,0,0,0,1,0,1,0,0,612,
scooby_state_fc127e5c|0|0 609,0,0,0,0,0,0,0,0,0,1,0,0,1,0,611,
scooby_state_fc127e5c|42|1 611,0,0,0,0,0,0,0,0,0,0,0,0,0,0,611,
scooby_state_fc127e5c|55|1 610,0,0,0,0,0,0,0,0,0,0,0,0,0,0,610,
scooby_state_fc127e5c|26|1 605,1,0,0,0,1,0,0,0,0,0,0,0,1,0,608,
scooby_state_10f5740|29|1 606,0,0,0,0,0,0,0,0,0,0,0,0,1,0,607,
scooby_state_fc127e5c|18|1 606,0,0,0,0,0,0,0,0,0,0,0,0,0,0,606,
scooby_state_10aba80|42|0 604,0,1,0,0,0,0,0,0,0,0,0,0,0,0,605,
scooby_state_fc127e5c|57|1 604,0,0,0,1,0,0,0,0,0,0,0,0,0,0,605,
scooby_state_10019c0|39|-6 603,0,0,0,0,0,0,0,0,0,0,0,0,0,0,603,
scooby_state_fc127e5c|38|1 602,0,1,0,0,0,0,0,0,0,0,0,0,0,0,603,
scooby_state_fc127e5c|33|1 598,0,0,0,0,1,0,0,0,0,0,0,0,1,0,600,
scooby_state_131ea80|42|3 600,0,0,0,0,0,0,0,0,0,0,0,0,0,0,600,
scooby_state_1136a80|42|-1 598,0,0,0,0,0,1,0,0,0,0,0,0,0,1,600,
scooby_state_1298a80|42|0 599,0,0,0,0,0,0,0,0,0,0,0,0,0,0,599,
scooby_state_fc127e5c|24|1 598,0,0,0,0,0,0,0,0,0,1,0,0,0,0,599,
scooby_state_fc127e5c|51|1 596,0,0,0,0,0,0,0,0,0,0,0,0,0,0,596,
scooby_state_fc127e5c|35|1 592,0,0,1,0,0,0,1,1,1,0,0,0,0,0,596,
scooby_state_10f56fc|27|0 594,0,0,0,0,0,0,1,0,1,0,0,0,0,0,596,
scooby_state_fc127e5c|6|1 594,0,0,0,0,0,0,0,0,0,0,1,0,0,0,595,
scooby_state_fc127e5c|14|1 592,0,0,0,0,0,1,1,0,0,0,0,0,0,0,594,
scooby_state_fc127e5c|34|1 591,1,0,0,0,0,0,0,0,0,0,0,0,0,0,592,
scooby_state_fc127e5c|41|1 590,0,0,0,0,0,0,0,0,0,1,0,0,0,0,591,
scooby_state_fc127e5c|5|1 589,1,0,1,0,0,0,0,0,0,0,0,0,0,0,591,
scooby_state_fc127e5c|16|1 590,0,0,0,0,0,0,0,0,1,0,0,0,0,0,591,
scooby_state_12975b4|21|0 590,0,0,0,0,0,0,0,0,0,0,0,0,0,0,590,
scooby_state_fc127e5c|29|1 588,0,0,0,0,0,0,0,0,0,0,1,0,0,0,589,
scooby_state_fc127e5c|53|1 587,0,0,0,0,0,0,0,0,0,0,0,0,0,2,589,
scooby_state_fc127e5c|2|1 588,0,0,0,0,0,0,0,0,0,0,0,0,0,0,588,
scooby_state_12974d8|43|1 586,0,0,0,0,0,0,0,0,0,0,0,0,0,1,587,
scooby_state_1130b3c|8|0 586,0,0,0,0,1,0,0,0,0,0,0,0,0,0,587,
scooby_state_12976e0|27|1 586,0,0,0,0,0,0,0,0,0,0,0,0,0,0,586,
scooby_state_1007480|18|1 560,20,1,1,0,0,0,0,0,0,1,1,0,1,1,586,
scooby_state_129775c|29|1 583,0,0,0,0,0,0,0,0,0,1,0,0,2,0,586,
scooby_state_1320318|12|1 584,0,0,0,0,0,0,0,0,0,0,1,0,0,0,585,
scooby_state_13202d4|11|0 583,1,0,0,1,0,0,0,0,0,0,0,0,0,0,585,
scooby_state_fc127e5c|63|1 584,0,1,0,0,0,0,0,0,0,0,0,0,0,0,585,
scooby_state_fc127e5c|8|1 585,0,0,0,0,0,0,0,0,0,0,0,0,0,0,585,
scooby_state_fc127e5c|52|1 583,0,0,0,0,0,0,0,0,0,0,0,0,2,0,585,
scooby_state_fc127e5c|27|1 583,1,0,0,0,0,0,0,0,0,0,0,0,0,0,584,
scooby_state_113108c|2|-12 217,0,365,0,0,0,0,0,0,1,0,0,0,0,0,583,
scooby_state_131e604|24|2 581,0,0,0,0,1,0,0,0,1,0,0,0,0,0,583,
scooby_state_fc127e5c|4|1 581,0,0,0,0,0,0,0,0,1,0,0,0,0,0,582,
scooby_state_fc127e5c|60|1 578,2,0,1,0,0,0,0,0,0,1,0,0,0,0,582,
scooby_state_fc127e5c|39|1 580,0,0,0,0,1,1,0,0,0,0,0,0,0,0,582,
scooby_state_fc127e5c|46|1 581,0,0,0,0,0,0,1,0,0,0,0,0,0,0,582,
scooby_state_fc127e5c|56|1 580,0,0,0,0,0,0,1,0,0,1,0,0,0,0,582,
scooby_state_104c600|24|1 580,0,0,1,1,0,0,0,0,0,0,0,0,0,0,582,
scooby_state_102227c|9|0 565,1,15,0,0,0,0,0,0,0,0,0,0,0,0,581,
scooby_state_fc127e5c|32|1 579,0,0,0,0,0,0,0,0,0,0,1,0,0,1,581,
scooby_state_11760d0|3|2 579,0,0,0,0,0,0,1,0,0,0,0,0,0,0,580,
scooby_state_fc18ba80|42|3 579,1,0,0,0,0,0,0,0,0,0,0,0,0,0,580,
scooby_state_fc127e5c|49|1 577,0,0,0,0,0,0,0,0,0,0,0,0,0,0,577,
scooby_state_1008a80|42|0 576,0,0,0,0,0,0,0,0,0,0,0,0,0,0,576,
scooby_state_12974d8|60|1 574,1,0,0,0,0,1,0,0,0,0,0,0,0,0,576,
scooby_state_12e0180|6|0 573,0,0,0,0,1,0,0,0,0,0,0,0,0,1,575,
scooby_state_1001300|12|-23 575,0,0,0,0,0,0,0,0,0,0,0,0,0,0,575,
scooby_state_10f5700|28|1 572,1,0,0,0,0,0,0,0,0,0,0,0,0,0,573,
scooby_state_fc0bb1c0|7|1 571,0,0,0,1,0,0,0,0,0,0,0,0,0,0,572,
scooby_state_fc127e5c|1|1 570,0,0,0,0,0,0,0,0,0,2,0,0,0,0,572,
scooby_state_fc127e5c|25|1 571,0,0,0,0,0,0,0,0,0,0,0,0,0,0,571,
scooby_state_fc127e5c|44|1 569,0,0,1,0,0,0,0,1,0,0,0,0,0,0,571,
scooby_state_12cb57c|21|2 567,1,0,2,0,0,0,0,0,0,0,0,0,0,1,571,
scooby_state_12eee90|59|0 568,0,0,0,1,0,0,0,0,0,0,0,0,0,0,569,
scooby_state_fc127e5c|7|1 569,0,0,0,0,0,0,0,0,0,0,0,0,0,0,569,
scooby_state_12cb4d4|19|1 567,0,0,0,0,0,0,0,0,0,0,0,0,0,0,567,
scooby_state_fc127e5c|19|1 566,0,1,0,0,0,0,0,0,0,0,0,0,0,0,567,
scooby_state_fc127e5c|12|1 565,0,0,0,0,0,0,0,1,1,0,0,0,0,0,567,
scooby_state_fc127e5c|31|1 565,0,0,0,0,0,0,0,0,2,0,0,0,0,0,567,
scooby_state_fc127e5c|21|1 564,0,0,0,0,0,1,0,0,0,1,0,0,0,0,566,
scooby_state_1297380|14|1 566,0,0,0,0,0,0,0,0,0,0,0,0,0,0,566,
scooby_state_fc195c00|48|1 564,0,0,0,0,0,1,0,0,0,0,0,1,0,0,566,
scooby_state_fc127e5c|37|1 566,0,0,0,0,0,0,0,0,0,0,0,0,0,0,566,
scooby_state_114af00|60|1 565,0,0,0,0,0,0,0,0,0,0,0,0,0,0,565,
scooby_state_fc127e5c|22|1 563,0,0,0,0,0,0,0,0,0,0,0,0,0,0,563,
scooby_state_12d1680|26|1 561,0,0,0,0,0,0,0,1,0,0,0,0,0,0,562,
scooby_state_12974d8|46|1 559,0,2,0,0,0,0,0,0,0,0,0,1,0,0,562,
scooby_state_fc127e5c|47|1 561,0,0,0,0,0,0,0,0,0,0,0,0,0,1,562,
scooby_state_fc127e5c|13|1 560,0,1,0,0,0,0,0,0,0,0,0,0,0,0,561,
scooby_state_12974d8|48|1 560,0,0,0,0,0,0,0,0,0,0,0,1,0,0,561,
scooby_state_12cf480|18|1 561,0,0,0,0,0,0,0,0,0,0,0,0,0,0,561,
scooby_state_1297700|28|1 560,0,0,0,0,0,0,0,0,0,0,0,0,0,0,560,
scooby_state_fc127e5c|54|1 557,0,0,0,0,2,1,0,0,0,0,0,0,0,0,560,
scooby_state_fc127e5c|45|1 558,0,0,1,0,0,1,0,0,0,0,0,0,0,0,560,
scooby_state_12d164c|25|-10 559,0,0,0,0,0,0,0,0,0,0,0,0,0,0,559,
scooby_state_fc127e5c|43|1 557,0,0,0,1,0,0,0,0,0,0,0,0,0,0,558,
scooby_state_12974d8|61|1 557,0,0,0,0,1,0,0,0,0,0,0,0,0,0,558,
scooby_state_fc127e5c|15|1 557,0,0,0,0,0,0,0,0,0,0,0,0,0,0,557,
scooby_state_fc127e5c|62|1 555,0,0,0,0,0,0,0,0,0,0,1,0,0,0,556,
scooby_state_10f5680|26|1 555,0,0,1,0,0,0,0,0,0,0,0,0,0,0,556,
scooby_state_1007308|12|0 554,0,0,0,1,0,0,0,0,0,0,0,0,0,1,556,
scooby_state_12cb600|24|1 555,0,0,0,0,0,0,0,0,0,0,0,0,0,0,555,
scooby_state_1297600|24|1 548,3,0,0,1,0,0,0,0,0,0,0,0,0,0,552,
scooby_state_113108c|2|0 72,0,473,0,0,1,1,1,1,1,1,1,0,0,0,552,
scooby_state_1302410|16|0 536,9,0,0,0,2,1,2,0,0,0,1,0,0,1,552,
scooby_state_fc127e5c|59|1 549,0,0,0,0,0,0,0,0,0,0,0,1,0,0,550,
scooby_state_fc0bb240|9|1 548,0,0,0,0,1,0,1,0,0,0,0,0,0,0,550,
scooby_state_12974d8|15|1 549,0,0,0,0,0,0,0,0,0,0,1,0,0,0,550,
scooby_state_12974d8|41|1 548,1,0,1,0,0,0,0,0,0,0,0,0,0,0,550,
scooby_state_12974c0|19|1 546,0,0,0,0,0,1,1,1,0,0,0,0,0,0,549,
scooby_state_12974d8|44|1 547,1,0,0,0,0,0,0,0,0,0,0,0,0,0,548,
scooby_state_12974d8|56|1 547,0,0,0,0,0,0,0,0,0,0,0,0,0,0,547,
scooby_state_11313c0|15|0 546,0,0,0,0,0,1,0,0,0,0,0,0,0,0,547,
scooby_state_fc0ae680|26|-30 544,0,0,0,0,0,0,0,0,0,0,0,0,0,1,545,
scooby_state_12974d8|26|1 544,0,0,0,0,0,0,0,1,0,0,0,0,0,0,545,
scooby_state_fc127e5c|20|1 544,0,0,0,0,0,0,0,0,0,1,0,0,0,0,545,
scooby_state_1338a44|41|0 543,0,0,0,0,0,0,0,0,1,0,0,0,0,0,544,
scooby_state_12974d8|54|1 543,0,0,0,0,0,0,0,1,0,0,0,0,0,0,544,
scooby_state_12976ac|26|1 543,0,0,0,1,0,0,0,0,0,0,0,0,0,0,544,
scooby_state_12974d8|31|1 543,0,0,0,1,0,0,0,0,0,0,0,0,0,0,544,
scooby_state_fc127e5c|61|1 543,0,0,0,0,0,0,0,0,0,0,0,0,0,0,543,
scooby_state_12974d8|45|1 541,0,0,0,0,0,0,0,0,0,0,0,0,0,0,541,
scooby_state_12974d8|52|1 539,0,0,0,0,0,0,0,0,0,0,0,0,0,0,539,
scooby_state_fc127e5c|28|1 538,0,0,0,0,0,0,0,1,0,0,0,0,0,0,539,
scooby_state_1131418|16|1 539,0,0,0,0,0,0,0,0,0,0,0,0,0,0,539,
scooby_state_111f5b4|22|0 538,1,0,0,0,0,0,0,0,0,0,0,0,0,0,539,
scooby_state_12974d8|32|1 539,0,0,0,0,0,0,0,0,0,0,0,0,0,0,539,
scooby_state_12974d8|49|1 537,0,0,0,0,0,0,1,0,0,0,0,0,0,0,538,
scooby_state_12974d8|42|1 536,1,0,0,0,0,0,0,0,0,0,0,0,0,0,537,
scooby_state_fc03c048|2|1 535,0,0,0,0,0,0,1,0,0,0,0,0,0,0,536,
scooby_state_fc127e5c|3|1 535,0,0,0,0,0,0,0,0,0,0,1,0,0,0,536,
scooby_state_12974d8|63|1 534,0,0,0,0,0,0,0,0,0,1,0,0,0,0,535,
scooby_state_12974d8|27|1 532,0,0,0,0,1,0,1,0,0,0,0,1,0,0,535,
scooby_state_fc03b9d8|39|1 535,0,0,0,0,0,0,0,0,0,0,0,0,0,0,535,
scooby_state_12974d8|62|1 535,0,0,0,0,0,0,0,0,0,0,0,0,0,0,535,
scooby_state_1007574|21|0 534,0,0,0,0,0,0,0,0,0,0,0,0,0,0,534,
scooby_state_12974d8|47|1 532,1,1,0,0,0,0,0,0,0,0,0,0,0,0,534,
scooby_state_12974d8|51|1 533,0,0,0,0,0,0,0,0,0,0,0,0,0,0,533,
scooby_state_12974d8|30|1 532,0,0,0,0,1,0,0,0,0,0,0,0,0,0,533,
scooby_state_10d3020|0|0 531,0,0,0,0,0,0,0,0,1,0,0,0,0,0,532,
scooby_state_10d3af0|43|43 529,0,0,0,0,1,0,1,1,0,0,0,0,0,0,532,
scooby_state_12cf400|16|1 530,1,0,0,0,0,0,0,0,0,0,0,0,0,0,531,
scooby_state_fc127e5c|30|1 530,0,0,0,0,0,0,0,0,0,0,0,0,0,0,530,
scooby_state_12974d8|53|1 530,0,0,0,0,0,0,0,0,0,0,0,0,0,0,530,
scooby_state_fc127e5c|36|1 528,0,0,0,0,0,0,0,0,0,0,0,1,0,0,529,
scooby_state_12974d8|25|1 528,0,0,0,0,0,0,0,0,0,0,0,0,0,0,528,
scooby_state_12974d8|55|1 527,0,0,0,0,0,0,0,0,0,0,0,0,0,0,527,
scooby_state_12974d8|36|1 525,0,0,0,1,0,0,0,1,0,0,0,0,0,0,527,
scooby_state_12974d8|50|1 526,0,0,0,0,0,0,1,0,0,0,0,0,0,0,527,
scooby_state_12974d8|59|1 525,0,0,0,0,0,0,0,1,0,0,0,0,0,0,526,
scooby_state_12cf3e0|15|-21 524,0,0,0,0,0,0,0,0,0,0,0,0,0,1,525,
scooby_state_10076a4|26|4 523,0,0,0,0,0,0,0,0,1,0,0,0,0,0,524,
scooby_state_129764c|25|1 522,0,0,0,0,0,0,0,0,0,0,0,0,0,0,522,
scooby_state_1215180|6|0 519,0,0,1,1,0,1,0,0,0,0,0,0,0,0,522,
scooby_state_12974d8|23|1 521,0,1,0,0,0,0,0,0,0,0,0,0,0,0,522,
scooby_state_12d1bf8|47|13 506,0,0,0,0,0,1,14,0,0,0,0,0,0,1,522,
scooby_state_12ee8ac|34|-26 481,0,0,0,17,0,1,18,1,1,1,0,0,1,0,521,
scooby_state_12974d8|38|1 519,0,0,0,0,0,0,0,0,0,1,0,0,0,0,520,
scooby_state_12974d8|37|1 517,0,0,0,0,0,1,0,0,0,0,0,0,0,1,519,
scooby_state_121507c|1|0 518,0,0,0,0,1,0,0,0,0,0,0,0,0,0,519,
scooby_state_fc127e5c|11|1 517,0,0,0,0,0,0,0,0,1,0,0,0,0,0,518,
scooby_state_10076a4|26|3 517,0,0,0,0,0,0,0,0,0,0,0,0,0,0,517,
scooby_state_12974d8|39|1 514,0,0,0,0,0,1,0,0,0,0,1,0,0,0,516,
scooby_state_12974d8|29|1 516,0,0,0,0,0,0,0,0,0,0,0,0,0,0,516,
scooby_state_12974d8|22|1 514,0,0,0,0,0,0,0,0,0,0,1,0,0,0,515,
scooby_state_12c9300|12|1 513,0,0,0,0,0,0,0,0,0,0,0,0,0,1,514,
scooby_state_12c92c0|11|-49 513,0,0,0,0,0,0,0,0,0,0,0,1,0,0,514,
scooby_state_12974d8|28|1 511,0,0,0,0,0,0,1,0,0,0,0,1,0,0,513,
scooby_state_12cf380|14|1 500,0,0,0,0,0,0,0,0,0,0,0,13,0,0,513,
scooby_state_10f5668|25|-4 510,0,0,0,0,0,1,0,0,0,1,0,0,0,0,512,
scooby_state_12974d8|40|1 512,0,0,0,0,0,0,0,0,0,0,0,0,0,0,512,
scooby_state_12974d8|13|1 508,0,0,1,0,0,0,0,0,0,0,0,0,0,2,511,
scooby_state_fc191ed4|55|0 510,0,0,0,0,0,0,0,0,0,0,0,0,0,0,510,
scooby_state_fc18b9c0|39|1 509,1,0,0,0,0,0,0,0,0,0,0,0,0,0,510,
scooby_state_12974d8|14|1 508,0,0,0,1,0,0,0,0,0,0,0,0,0,0,509,
scooby_state_12974d8|20|1 509,0,0,0,0,0,0,0,0,0,0,0,0,0,0,509,
scooby_state_12cf430|16|0 509,0,0,0,0,0,0,0,0,0,0,0,0,0,0,509,
scooby_state_fc117000|0|-3 506,0,0,0,0,0,0,0,1,0,0,0,0,0,0,507,
scooby_state_12974d8|57|1 506,0,0,0,0,0,0,0,0,0,0,1,0,0,0,507,
scooby_state_11312e4|2|-6 504,0,0,0,0,0,0,0,0,0,0,0,0,0,0,504,
scooby_state_114f440|17|1 504,0,0,0,0,0,0,0,0,0,0,0,0,0,0,504,
scooby_state_12974d8|19|1 502,0,0,0,0,0,0,0,0,0,0,0,0,0,0,502,
scooby_state_12974d8|24|1 501,0,0,0,0,0,0,0,0,0,0,0,0,0,0,501,
scooby_state_12eebc8|47|3 499,0,0,0,0,0,0,0,0,0,0,0,0,0,0,499,
scooby_state_1297480|18|1 497,0,0,0,0,0,0,0,0,0,1,0,0,0,0,498,
scooby_state_12e008c|2|-4 486,6,0,0,1,0,0,0,0,0,1,0,0,0,1,495,
scooby_state_105ac54|47|0 487,7,0,1,0,0,0,0,0,0,0,0,0,0,0,495,
scooby_state_12dfe94|49|0 495,0,0,0,0,0,0,0,0,0,0,0,0,0,0,495,
scooby_state_133c760|2|0 491,0,0,0,0,0,0,0,0,1,0,0,0,0,0,492,
scooby_state_10019c0|39|1 490,0,0,0,0,0,0,0,0,0,0,0,0,0,0,490,
scooby_state_fe5351e0|7|0 489,0,0,0,0,0,0,0,0,0,0,0,0,0,0,489,
scooby_state_1008aac|60|0 485,0,0,2,0,0,0,0,1,0,0,0,0,0,0,488,
scooby_state_1001180|6|0 488,0,0,0,0,0,0,0,0,0,0,0,0,0,0,488,
scooby_state_fe535200|8|1 486,0,0,0,0,0,0,0,0,0,0,0,0,0,1,487,
scooby_state_fe527278|9|0 481,4,0,0,1,0,0,0,0,0,0,1,0,0,0,487,
scooby_state_12974d8|34|1 486,0,0,0,0,0,0,0,0,1,0,0,0,0,0,487,
scooby_state_1007514|20|0 486,0,0,0,0,0,0,0,0,0,0,0,0,0,0,486,
scooby_state_12eefc4|63|1 485,0,0,0,0,0,0,0,0,0,0,0,0,0,0,485,
scooby_state_12974d8|58|1 485,0,0,0,0,0,0,0,0,0,0,0,0,0,0,485,
scooby_state_12974d8|12|1 483,0,0,0,0,0,0,0,0,0,0,0,1,0,0,484,
scooby_state_12974d8|35|1 483,0,0,0,0,0,0,0,0,0,0,0,0,0,0,483,
scooby_state_fc03d3c4|0|0 338,17,2,16,14,8,10,9,7,19,10,7,4,4,17,482,
scooby_state_b8e23ee0|59|6 481,0,1,0,0,0,0,0,0,0,0,0,0,0,0,482,
scooby_state_1001b00|44|31 481,0,0,0,0,0,0,0,1,0,0,0,0,0,0,482,
scooby_state_12974d8|11|1 478,0,0,0,0,0,0,0,0,0,0,0,0,0,0,478,
scooby_state_12cf440|17|3 475,0,0,0,0,0,0,0,0,0,0,0,0,0,0,475,
scooby_state_fe527554|21|9 472,0,0,0,0,0,0,0,0,0,0,0,0,0,1,473,
scooby_state_10059c0|39|0 448,23,0,0,0,0,0,0,0,0,0,0,0,0,0,471,
scooby_state_12974d8|16|1 469,0,0,0,0,0,0,1,0,1,0,0,0,0,0,471,
scooby_state_fc122838|0|0 469,0,0,0,0,0,0,0,0,0,0,0,0,1,0,470,
scooby_state_10066f0|12|0 468,0,0,0,0,0,0,0,0,0,0,0,0,0,1,469,
scooby_state_10074c0|19|1 467,0,0,0,0,1,0,0,0,0,1,0,0,0,0,469,
scooby_state_12c91b4|6|-31 467,0,0,0,0,0,0,0,0,0,0,1,0,0,0,468,
scooby_state_12c9940|37|1 468,0,0,0,0,0,0,0,0,0,0,0,0,0,0,468,
scooby_state_12d5818|32|0 467,0,0,0,0,0,0,0,0,0,0,0,0,0,0,467,
scooby_state_133c800|32|1 466,0,1,0,0,0,0,0,0,0,0,0,0,0,0,467,
scooby_state_12974d8|33|1 466,0,0,0,1,0,0,0,0,0,0,0,0,0,0,467,
scooby_state_12cf368|45|0 466,0,0,0,0,0,0,0,0,0,0,0,0,0,0,466,
scooby_state_114af80|62|3 398,2,1,3,4,4,4,3,4,4,4,6,4,7,18,466,
scooby_state_1131564|21|5 459,0,5,0,0,0,0,0,0,0,0,0,0,1,1,466,
scooby_state_1007380|14|1 465,0,0,0,0,0,0,0,0,0,0,0,0,1,0,466,
scooby_state_11369c8|39|-8 462,0,0,0,0,0,0,1,0,0,0,0,0,0,0,463,
scooby_state_fe527280|10|1 463,0,0,0,0,0,0,0,0,0,0,0,0,0,0,463,
scooby_state_1001980|38|-7 461,0,0,0,0,0,0,1,0,0,0,0,0,0,0,462,
scooby_state_fe55f5c0|23|1 461,0,0,0,0,0,0,0,0,0,0,0,0,0,0,461,
scooby_state_fe55f580|22|1 459,0,0,0,0,1,0,0,1,0,0,0,0,0,0,461,
scooby_state_fe55f44c|17|0 461,0,0,0,0,0,0,0,0,0,0,0,0,0,0,461,
scooby_state_fc122838|46|1 460,0,0,0,0,0,0,0,0,0,0,0,0,0,0,460,
scooby_state_12974d8|18|1 457,0,0,0,0,1,0,0,0,0,0,0,0,1,0,459,
scooby_state_fe55f4c0|19|1 459,0,0,0,0,0,0,0,0,0,0,0,0,0,0,459,
scooby_state_fe55f480|18|1 458,1,0,0,0,0,0,0,0,0,0,0,0,0,0,459,
scooby_state_1008c78|60|0 439,3,2,0,1,1,2,2,1,0,1,2,0,1,4,459,
scooby_state_fe55f680|26|1 457,0,0,0,0,0,0,0,0,0,0,0,0,0,0,457,
scooby_state_fc18b9c0|39|4 414,0,0,38,0,0,3,0,0,0,0,1,0,0,1,457,
scooby_state_1176004|0|0 455,1,0,0,0,0,0,0,0,0,0,0,0,1,0,457,
scooby_state_fc191f1c|32|0 352,0,97,0,1,1,0,1,0,1,1,1,0,1,1,457,
scooby_state_fc03c048|11|3 456,0,0,0,0,0,0,0,0,0,0,0,0,0,0,456,
scooby_state_fc122838|16|1 454,1,0,0,0,1,0,0,0,0,0,0,0,0,0,456,
scooby_state_fc122838|57|1 454,0,0,0,0,0,0,0,1,0,0,0,0,0,0,455,
scooby_state_fc122838|22|1 454,0,0,1,0,0,0,0,0,0,0,0,0,0,0,455,
scooby_state_fc122838|3|1 453,0,0,0,0,0,1,0,0,1,0,0,0,0,0,455,
scooby_state_105ac3c|23|0 453,0,0,0,0,1,0,0,0,0,0,0,0,0,0,454,
scooby_state_fc122838|36|1 454,0,0,0,0,0,0,0,0,0,0,0,0,0,0,454,
scooby_state_12c9ea8|58|49 454,0,0,0,0,0,0,0,0,0,0,0,0,0,0,454,
scooby_state_fc122838|49|1 453,0,0,0,0,0,0,0,0,0,0,0,0,0,0,453,
scooby_state_fc122838|41|1 452,0,0,0,0,0,0,0,0,0,1,0,0,0,0,453,
scooby_state_fc122838|53|1 451,0,0,0,0,0,0,1,0,0,0,0,0,0,0,452,
scooby_state_fe567e80|58|1 450,0,0,0,0,0,0,0,0,0,0,0,0,0,0,450,
scooby_state_12974d8|21|1 450,0,0,0,0,0,0,0,0,0,0,0,0,0,0,450,
scooby_state_fe567ec0|59|1 448,1,0,0,1,0,0,0,0,0,0,0,0,0,0,450,
scooby_state_fc122838|44|1 449,0,0,1,0,0,0,0,0,0,0,0,0,0,0,450,
scooby_state_fe567f00|60|1 450,0,0,0,0,0,0,0,0,0,0,0,0,0,0,450,
scooby_state_12974d8|17|1 447,0,0,0,0,0,0,0,0,0,0,1,0,0,0,448,
scooby_state_fc03d3c4|1|0 331,8,3,15,10,12,9,14,5,6,10,4,4,5,11,447,
scooby_state_12d4dc0|55|0 446,0,0,0,0,0,0,0,0,0,0,0,0,0,0,446,
scooby_state_fe55f540|21|1 446,0,0,0,0,0,0,0,0,0,0,0,0,0,0,446,
scooby_state_131fc38|30|29 442,0,0,0,1,0,0,0,0,0,0,0,1,0,0,444,
scooby_state_fc122838|11|1 443,0,0,0,0,0,0,0,0,0,0,0,0,0,0,443,
scooby_state_12ee300|12|-32 442,0,0,0,0,0,0,0,0,0,0,0,0,0,0,442,
scooby_state_105ac54|47|24 432,7,0,3,0,0,0,0,0,0,0,0,0,0,0,442,
scooby_state_fc122838|37|1 441,0,0,0,0,0,0,0,0,0,0,0,0,0,0,441,
scooby_state_fc122838|38|1 440,0,0,0,0,0,0,0,0,1,0,0,0,0,0,441,
scooby_state_1007478|17|0 440,0,0,0,0,0,0,0,0,0,0,0,0,1,0,441,
scooby_state_fc122838|33|1 441,0,0,0,0,0,0,0,0,0,0,0,0,0,0,441,
scooby_state_fc122838|51|1 440,0,0,0,0,0,0,0,0,0,0,0,0,0,0,440,
scooby_state_133c8a0|34|1 438,0,0,0,0,0,0,0,0,0,0,0,0,0,0,438,
scooby_state_fe55f6c0|27|1 436,1,0,0,0,1,0,0,0,0,0,0,0,0,0,438,
scooby_state_1297440|17|1 437,0,0,0,0,0,0,0,0,0,0,0,0,0,1,438,
scooby_state_fc122838|9|1 436,0,0,0,0,0,1,0,0,0,0,0,0,0,1,438,
scooby_state_fe55f500|20|1 317,119,0,0,0,0,0,0,0,0,1,0,0,0,0,437,
scooby_state_fc122838|7|1 437,0,0,0,0,0,0,0,0,0,0,0,0,0,0,437,
scooby_state_fc122838|8|1 434,0,0,1,0,0,0,0,0,0,0,0,1,0,0,436,
scooby_state_ff3907c0|31|0 431,1,1,2,0,0,0,0,0,0,0,0,0,0,0,435,
scooby_state_ff390910|36|5 434,0,0,0,0,1,0,0,0,0,0,0,0,0,0,435,
scooby_state_fc122838|24|1 433,0,0,0,0,0,0,0,0,0,0,0,0,0,0,433,
scooby_state_fc122838|47|1 432,0,0,0,0,0,0,0,0,0,1,0,0,0,0,433,
scooby_state_fc122838|15|1 430,0,0,0,0,1,0,0,0,0,0,0,0,0,1,432,
scooby_state_fc122838|32|1 431,0,0,0,0,0,0,0,0,0,0,0,0,0,0,431,
scooby_state_12d1680|26|-9 429,0,0,0,0,0,0,0,0,0,1,0,0,0,0,430,
scooby_state_fc17e8a0|0|0 429,0,0,0,0,0,1,0,0,0,0,0,0,0,0,430,
scooby_state_12ee798|52|0 429,0,0,0,0,0,0,0,0,0,0,0,0,0,0,429,
scooby_state_fc122838|27|1 429,0,0,0,0,0,0,0,0,0,0,0,0,0,0,429,
scooby_state_fc122838|40|1 426,0,0,0,0,0,0,0,0,0,0,0,0,1,0,427,
scooby_state_fc122838|56|1 426,1,0,0,0,0,0,0,0,0,0,0,0,0,0,427,
scooby_state_ff390e58|54|1 424,0,0,0,0,0,0,0,0,1,0,1,0,0,0,426,
scooby_state_12eed30|63|0 400,0,0,24,0,0,0,0,0,0,0,0,0,0,0,424,
scooby_state_fc122838|62|1 423,0,0,0,0,0,0,0,0,0,0,0,0,0,1,424,
scooby_state_1214240|46|0 423,0,0,0,0,0,0,0,0,1,0,0,0,0,0,424,
scooby_state_ff390e58|47|1 423,0,0,0,0,0,0,0,0,0,0,0,0,0,0,423,
scooby_state_fc122838|5|1 419,0,1,0,0,0,0,0,0,0,0,0,0,0,0,420,
scooby_state_132233c|12|1 420,0,0,0,0,0,0,0,0,0,0,0,0,0,0,420,
scooby_state_ff390e58|17|1 415,0,0,1,0,1,0,0,0,0,0,0,0,0,1,418,
scooby_state_fc122838|35|1 416,0,0,2,0,0,0,0,0,0,0,0,0,0,0,418,
scooby_state_13222c0|11|1 417,0,0,0,0,0,0,0,0,0,0,0,0,0,0,417,
scooby_state_ff390e58|18|1 414,0,1,0,1,0,0,1,0,0,0,0,0,0,0,417,
[...]
scooby_state_fc1e8228|0|-40 1,0,0,0,0,0,0,0,0,0,0,0,0,0,0,1,
scooby_state_fc0acca0|40|0 1,0,0,0,0,0,0,0,0,0,0,0,0,0,0,1,
scooby_state_fc20537c|35|1 1,0,0,0,0,0,0,0,0,0,0,0,0,0,0,1,
scooby_state_fc205310|48|2 1,0,0,0,0,0,0,0,0,0,0,0,0,0,0,1,
scooby_state_fc0ab128|57|-3 1,0,0,0,0,0,0,0,0,0,0,0,0,0,0,1,
scooby_state_fc03bd54|32|4 1,0,0,0,0,0,0,0,0,0,0,0,0,0,0,1,
scooby_state_fc1953dc|36|1 1,0,0,0,0,0,0,0,0,0,0,0,0,0,0,1,
scooby_state_fc06869c|34|-4 1,0,0,0,0,0,0,0,0,0,0,0,0,0,0,1,
scooby_state_fc1e82a0|37|37 1,0,0,0,0,0,0,0,0,0,0,0,0,0,0,1,
scooby_state_fc1e8228|0|-30 1,0,0,0,0,0,0,0,0,0,0,0,0,0,0,1,
scooby_state_fc195480|37|0 1,0,0,0,0,0,0,0,0,0,0,0,0,0,0,1,
scooby_state_fc0accfc|4|1 1,0,0,0,0,0,0,0,0,0,0,0,0,0,0,1,
scooby_state_fc1d2abc|56|25 1,0,0,0,0,0,0,0,0,0,0,0,0,0,0,1,
scooby_state_fc1cc3d0|26|1 1,0,0,0,0,0,0,0,0,0,0,0,0,0,0,1,
scooby_state_fc1b11c4|42|0 1,0,0,0,0,0,0,0,0,0,0,0,0,0,0,1,
scooby_state_fc069cdc|11|-44 1,0,0,0,0,0,0,0,0,0,0,0,0,0,0,1,
scooby_state_fc2053cc|33|1 1,0,0,0,0,0,0,0,0,0,0,0,0,0,0,1,
scooby_state_fc20537c|32|1 1,0,0,0,0,0,0,0,0,0,0,0,0,0,0,1,
scooby_state_fc205374|31|1 1,0,0,0,0,0,0,0,0,0,0,0,0,0,0,1,
scooby_state_fc20531c|29|1 1,0,0,0,0,0,0,0,0,0,0,0,0,0,0,1,
scooby_state_fc205310|28|1 1,0,0,0,0,0,0,0,0,0,0,0,0,0,0,1,
scooby_state_fc2052a4|43|0 1,0,0,0,0,0,0,0,0,0,0,0,0,0,0,1,
scooby_state_fc1cd2c0|27|0 1,0,0,0,0,0,0,0,0,0,0,0,0,0,0,1,
scooby_state_fc2053d8|34|1 1,0,0,0,0,0,0,0,0,0,0,0,0,0,0,1,
scooby_state_fc1cc3c0|24|1 1,0,0,0,0,0,0,0,0,0,0,0,0,0,0,1,
scooby_state_fc03c850|16|7 1,0,0,0,0,0,0,0,0,0,0,0,0,0,0,1,
scooby_state_fc0acd1c|55|51 1,0,0,0,0,0,0,0,0,0,0,0,0,0,0,1,
scooby_state_fc1ea288|46|1 1,0,0,0,0,0,0,0,0,0,0,0,0,0,0,1,
scooby_state_fc2051a8|43|1 1,0,0,0,0,0,0,0,0,0,0,0,0,0,0,1,
scooby_state_fc205324|18|1 1,0,0,0,0,0,0,0,0,0,0,0,0,0,0,1,
scooby_state_fc205310|16|3 1,0,0,0,0,0,0,0,0,0,0,0,0,0,0,1,
scooby_state_fc20863c|47|2 1,0,0,0,0,0,0,0,0,0,0,0,0,0,0,1,
scooby_state_fc1be498|13|2 1,0,0,0,0,0,0,0,0,0,0,0,0,0,0,1,
scooby_state_fc20529c|36|1 1,0,0,0,0,0,0,0,0,0,0,0,0,0,0,1,
scooby_state_fc2053cc|43|1 1,0,0,0,0,0,0,0,0,0,0,0,0,0,0,1,
scooby_state_fc2d4f88|18|1 1,0,0,0,0,0,0,0,0,0,0,0,0,0,0,1,
scooby_state_fc20537c|42|1 1,0,0,0,0,0,0,0,0,0,0,0,0,0,0,1,
scooby_state_fc0ab138|48|2 1,0,0,0,0,0,0,0,0,0,0,0,0,0,0,1,
scooby_state_fc205374|41|1 1,0,0,0,0,0,0,0,0,0,0,0,0,0,0,1,
scooby_state_fc20531c|39|1 1,0,0,0,0,0,0,0,0,0,0,0,0,0,0,1,
scooby_state_fc17b064|48|1 1,0,0,0,0,0,0,0,0,0,0,0,0,0,0,1,
scooby_state_fc205310|38|2 1,0,0,0,0,0,0,0,0,0,0,0,0,0,0,1,
scooby_state_fc1d299c|39|-4 1,0,0,0,0,0,0,0,0,0,0,0,0,0,0,1,
scooby_state_fc1ea184|21|0 1,0,0,0,0,0,0,0,0,0,0,0,0,0,0,1,
scooby_state_fc1be498|35|33 1,0,0,0,0,0,0,0,0,0,0,0,0,0,0,1,
scooby_state_fc069d2c|53|6 1,0,0,0,0,0,0,0,0,0,0,0,0,0,0,1,
scooby_state_fc1ea22c|43|-3 1,0,0,0,0,0,0,0,0,0,0,0,0,0,0,1,
scooby_state_fc1ea218|46|5 1,0,0,0,0,0,0,0,0,0,0,0,0,0,0,1,
scooby_state_fc1ea2d4|46|0 1,0,0,0,0,0,0,0,0,0,0,0,0,0,0,1,
scooby_state_fc17e6a8|49|7 1,0,0,0,0,0,0,0,0,0,0,0,0,0,0,1,
scooby_state_10019a4|27|2 1,0,0,0,0,0,0,0,0,0,0,0,0,0,0,1,
scooby_state_fc1ea304|0|-34 1,0,0,0,0,0,0,0,0,0,0,0,0,0,0,1,
scooby_state_fc33a80c|50|2 1,0,0,0,0,0,0,0,0,0,0,0,0,0,0,1,
scooby_state_fc1cd2c0|57|2 1,0,0,0,0,0,0,0,0,0,0,0,0,0,0,1,
scooby_state_fc1cd1f8|57|0 1,0,0,0,0,0,0,0,0,0,0,0,0,0,0,1,
scooby_state_fc28935c|48|1 1,0,0,0,0,0,0,0,0,0,0,0,0,0,0,1,
scooby_state_fc28935c|47|1 1,0,0,0,0,0,0,0,0,0,0,0,0,0,0,1,
scooby_state_fc289330|40|-1 1,0,0,0,0,0,0,0,0,0,0,0,0,0,0,1,
scooby_state_fc1cd1f8|53|0 1,0,0,0,0,0,0,0,0,0,0,0,0,0,0,1,
scooby_state_1008aac|42|36 1,0,0,0,0,0,0,0,0,0,0,0,0,0,0,1,
scooby_state_129712c|15|3 1,0,0,0,0,0,0,0,0,0,0,0,0,0,0,1,
scooby_state_129712c|4|2 1,0,0,0,0,0,0,0,0,0,0,0,0,0,0,1,
scooby_state_fc2a082c|34|1 1,0,0,0,0,0,0,0,0,0,0,0,0,0,0,1,
scooby_state_fc1cd51c|48|0 1,0,0,0,0,0,0,0,0,0,0,0,0,0,0,1,
scooby_state_fc28935c|45|1 1,0,0,0,0,0,0,0,0,0,0,0,0,0,0,1,
scooby_state_fc289344|44|1 1,0,0,0,0,0,0,0,0,0,0,0,0,0,0,1,
scooby_state_11eb99c|61|0 1,0,0,0,0,0,0,0,0,0,0,0,0,0,0,1,
scooby_state_fc2892cc|51|41 1,0,0,0,0,0,0,0,0,0,0,0,0,0,0,1,
scooby_state_fc2893b0|7|-4 1,0,0,0,0,0,0,0,0,0,0,0,0,0,0,1,
scooby_state_fc1bde20|43|-5 1,0,0,0,0,0,0,0,0,0,0,0,0,0,0,1,
scooby_state_fc0bcc90|55|9 1,0,0,0,0,0,0,0,0,0,0,0,0,0,0,1,
scooby_state_fc33a6ec|48|10 1,0,0,0,0,0,0,0,0,0,0,0,0,0,0,1,
scooby_state_fc1cd51c|42|0 1,0,0,0,0,0,0,0,0,0,0,0,0,0,0,1,
scooby_state_fc289388|50|0 1,0,0,0,0,0,0,0,0,0,0,0,0,0,0,1,
scooby_state_fc1525b0|3|1 1,0,0,0,0,0,0,0,0,0,0,0,0,0,0,1,
scooby_state_fc33a6ec|58|4 1,0,0,0,0,0,0,0,0,0,0,0,0,0,0,1,
scooby_state_fc33a6d0|10|-40 1,0,0,0,0,0,0,0,0,0,0,0,0,0,0,1,
scooby_state_fc03bd30|3|1 1,0,0,0,0,0,0,0,0,0,0,0,0,0,0,1,
scooby_state_fc208b3c|2|1 1,0,0,0,0,0,0,0,0,0,0,0,0,0,0,1,
scooby_state_fc0bd00c|29|25 1,0,0,0,0,0,0,0,0,0,0,0,0,0,0,1,
scooby_state_fc28936c|54|1 1,0,0,0,0,0,0,0,0,0,0,0,0,0,0,1,
scooby_state_fc28935c|53|1 1,0,0,0,0,0,0,0,0,0,0,0,0,0,0,1,
scooby_state_10122c4|42|1 1,0,0,0,0,0,0,0,0,0,0,0,0,0,0,1,
scooby_state_10059a0|38|-2 1,0,0,0,0,0,0,0,0,0,0,0,0,0,0,1,
scooby_state_fc190f00|57|0 1,0,0,0,0,0,0,0,0,0,0,0,0,0,0,1,
scooby_state_fc28936c|51|1 1,0,0,0,0,0,0,0,0,0,0,0,0,0,0,1,
scooby_state_fc28935c|50|1 1,0,0,0,0,0,0,0,0,0,0,0,0,0,0,1,
scooby_state_fc33a6ec|54|11 1,0,0,0,0,0,0,0,0,0,0,0,0,0,0,1,
scooby_state_fc33a6d0|10|-31 1,0,0,0,0,0,0,0,0,0,0,0,0,0,0,1,
scooby_state_fc341bb0|3|1 1,0,0,0,0,0,0,0,0,0,0,0,0,0,0,1,
scooby_state_fc2893b0|43|-5 1,0,0,0,0,0,0,0,0,0,0,0,0,0,0,1,
scooby_state_fc289388|41|-18 1,0,0,0,0,0,0,0,0,0,0,0,0,0,0,1,
scooby_state_fc1d28e0|1|-42 1,0,0,0,0,0,0,0,0,0,0,0,0,0,0,1,
scooby_state_fc1ccf54|8|5 1,0,0,0,0,0,0,0,0,0,0,0,0,0,0,1,
scooby_state_fc33a6ec|42|5 1,0,0,0,0,0,0,0,0,0,0,0,0,0,0,1,
scooby_state_fc208b3c|37|1 1,0,0,0,0,0,0,0,0,0,0,0,0,0,0,1,
scooby_state_fc12802c|42|2 1,0,0,0,0,0,0,0,0,0,0,0,0,0,0,1,
scooby_state_fc28935c|37|1 1,0,0,0,0,0,0,0,0,0,0,0,0,0,0,1,
scooby_state_fc28935c|36|4 1,0,0,0,0,0,0,0,0,0,0,0,0,0,0,1,
scooby_state_fc122a3c|22|0 1,0,0,0,0,0,0,0,0,0,0,0,0,0,0,1,
scooby_state_114af60|23|-9 1,0,0,0,0,0,0,0,0,0,0,0,0,0,0,1,
scooby_state_fc03b994|26|0 1,0,0,0,0,0,0,0,0,0,0,0,0,0,0,1,
scooby_state_fc1f51bc|30|1 1,0,0,0,0,0,0,0,0,0,0,0,0,0,0,1,
scooby_state_fc0761fc|55|3 1,0,0,0,0,0,0,0,0,0,0,0,0,0,0,1,
scooby_state_fc195480|60|60 1,0,0,0,0,0,0,0,0,0,0,0,0,0,0,1,
scooby_state_fc1cc3c8|34|1 1,0,0,0,0,0,0,0,0,0,0,0,0,0,0,1,
scooby_state_fc2892cc|32|1 1,0,0,0,0,0,0,0,0,0,0,0,0,0,0,1,
scooby_state_fc0bc6dc|4|3 1,0,0,0,0,0,0,0,0,0,0,0,0,0,0,1,
scooby_state_fc33a670|31|1 1,0,0,0,0,0,0,0,0,0,0,0,0,0,0,1,
scooby_state_fc33a660|29|1 1,0,0,0,0,0,0,0,0,0,0,0,0,0,0,1,
scooby_state_fc26c7f8|2|1 1,0,0,0,0,0,0,0,0,0,0,0,0,0,0,1,
scooby_state_fc2db450|28|1 1,0,0,0,0,0,0,0,0,0,0,0,0,0,0,1,
scooby_state_fe2579f8|2|1 1,0,0,0,0,0,0,0,0,0,0,0,0,0,0,1,
scooby_state_1008aac|28|1 1,0,0,0,0,0,0,0,0,0,0,0,0,0,0,1,
scooby_state_fc208b3c|47|17 1,0,0,0,0,0,0,0,0,0,0,0,0,0,0,1,
scooby_state_fc1cd2c0|46|3 1,0,0,0,0,0,0,0,0,0,0,0,0,0,0,1,
scooby_state_fc1cc3d0|45|1 1,0,0,0,0,0,0,0,0,0,0,0,0,0,0,1,
scooby_state_fe50f498|34|-2 1,0,0,0,0,0,0,0,0,0,0,0,0,0,0,1,
scooby_state_fc2614fc|37|1 1,0,0,0,0,0,0,0,0,0,0,0,0,0,0,1,
scooby_state_fc1cc3c8|44|1 1,0,0,0,0,0,0,0,0,0,0,0,0,0,0,1,
scooby_state_fc0bb238|33|10 1,0,0,0,0,0,0,0,0,0,0,0,0,0,0,1,
scooby_state_fc1f51bc|21|1 1,0,0,0,0,0,0,0,0,0,0,0,0,0,0,1,
scooby_state_fc1cc3c0|43|13 1,0,0,0,0,0,0,0,0,0,0,0,0,0,0,1,
scooby_state_10059b0|36|0 1,0,0,0,0,0,0,0,0,0,0,0,0,0,0,1,
scooby_state_fc289388|30|-12 1,0,0,0,0,0,0,0,0,0,0,0,0,0,0,1,
scooby_state_fc0bc914|22|0 1,0,0,0,0,0,0,0,0,0,0,0,0,0,0,1,
scooby_state_fc1cd23c|40|1 1,0,0,0,0,0,0,0,0,0,0,0,0,0,0,1,
scooby_state_fc03bf44|19|7 1,0,0,0,0,0,0,0,0,0,0,0,0,0,0,1,
scooby_state_1001988|47|11 1,0,0,0,0,0,0,0,0,0,0,0,0,0,0,1,
scooby_state_fc2892c4|40|1 1,0,0,0,0,0,0,0,0,0,0,0,0,0,0,1,
scooby_state_fc289264|38|-5 1,0,0,0,0,0,0,0,0,0,0,0,0,0,0,1,
scooby_state_fc2891f4|38|28 1,0,0,0,0,0,0,0,0,0,0,0,0,0,0,1,
scooby_state_fc0bb300|39|19 1,0,0,0,0,0,0,0,0,0,0,0,0,0,0,1,
scooby_state_fc33a838|10|-19 1,0,0,0,0,0,0,0,0,0,0,0,0,0,0,1,
scooby_state_fc1e6964|51|1 1,0,0,0,0,0,0,0,0,0,0,0,0,0,0,1,
scooby_state_fc1aa634|51|1 1,0,0,0,0,0,0,0,0,0,0,0,0,0,0,1,
scooby_state_fc2007bc|43|1 1,0,0,0,0,0,0,0,0,0,0,0,0,0,0,1,
scooby_state_fe8b79d8|47|4 1,0,0,0,0,0,0,0,0,0,0,0,0,0,0,1,
scooby_state_fc1e69d4|45|1 0,0,0,0,0,0,0,0,0,1,0,0,0,0,0,1,
scooby_state_fc2007c0|44|1 1,0,0,0,0,0,0,0,0,0,0,0,0,0,0,1,
scooby_state_fc33a80c|40|2 1,0,0,0,0,0,0,0,0,0,0,0,0,0,0,1,
scooby_state_fc1e697c|33|2 1,0,0,0,0,0,0,0,0,0,0,0,0,0,0,1,
scooby_state_fc1e6900|30|20 1,0,0,0,0,0,0,0,0,0,0,0,0,0,0,1,
scooby_state_fc2007c0|50|2 1,0,0,0,0,0,0,0,0,0,0,0,0,0,0,1,
scooby_state_fc1e69d4|37|1 1,0,0,0,0,0,0,0,0,0,0,0,0,0,0,1,
scooby_state_fc2007bc|29|1 1,0,0,0,0,0,0,0,0,0,0,0,0,0,0,1,
scooby_state_10639ac|22|0 1,0,0,0,0,0,0,0,0,0,0,0,0,0,0,1,
scooby_state_fc2007bc|28|1 1,0,0,0,0,0,0,0,0,0,0,0,0,0,0,1,
scooby_state_fc1e69d4|34|2 1,0,0,0,0,0,0,0,0,0,0,0,0,0,0,1,
scooby_state_fc1cd2c0|40|1 1,0,0,0,0,0,0,0,0,0,0,0,0,0,0,1,
scooby_state_fc2007c0|33|0 1,0,0,0,0,0,0,0,0,0,0,0,0,0,0,1,
scooby_state_1130b20|1|-7 1,0,0,0,0,0,0,0,0,0,0,0,0,0,0,1,
scooby_state_fc1fc310|6|-1 1,0,0,0,0,0,0,0,0,0,0,0,0,0,0,1,
scooby_state_fc2614fc|10|6 1,0,0,0,0,0,0,0,0,0,0,0,0,0,0,1,
scooby_state_fc1d71bc|29|1 1,0,0,0,0,0,0,0,0,0,0,0,0,0,0,1,
scooby_state_fc069c1c|60|3 1,0,0,0,0,0,0,0,0,0,0,0,0,0,0,1,
scooby_state_fc205374|59|2 1,0,0,0,0,0,0,0,0,0,0,0,0,0,0,1,
scooby_state_fc1ec920|41|-14 1,0,0,0,0,0,0,0,0,0,0,0,0,0,0,1,
scooby_state_fec53f00|53|0 1,0,0,0,0,0,0,0,0,0,0,0,0,0,0,1,
scooby_state_fc1e9fc8|39|1 1,0,0,0,0,0,0,0,0,0,0,0,0,0,0,1,
scooby_state_fc3260ac|20|1 1,0,0,0,0,0,0,0,0,0,0,0,0,0,0,1,
scooby_state_fc1e9e1c|30|20 1,0,0,0,0,0,0,0,0,0,0,0,0,0,0,1,
scooby_state_fc24d590|15|11 1,0,0,0,0,0,0,0,0,0,0,0,0,0,0,1,
scooby_state_fc1fc318|7|2 1,0,0,0,0,0,0,0,0,0,0,0,0,0,0,1,
scooby_state_fc1da724|23|0 1,0,0,0,0,0,0,0,0,0,0,0,0,0,0,1,
scooby_state_fc2893b0|15|0 1,0,0,0,0,0,0,0,0,0,0,0,0,0,0,1,
scooby_state_fc33a80c|4|-25 1,0,0,0,0,0,0,0,0,0,0,0,0,0,0,1,
scooby_state_fc33a860|58|3 1,0,0,0,0,0,0,0,0,0,0,0,0,0,0,1,
scooby_state_fc261500|55|1 1,0,0,0,0,0,0,0,0,0,0,0,0,0,0,1,
scooby_state_fc2614fc|59|1 1,0,0,0,0,0,0,0,0,0,0,0,0,0,0,1,
scooby_state_fc2007c0|52|1 1,0,0,0,0,0,0,0,0,0,0,0,0,0,0,1,
scooby_state_fc2007bc|57|2 1,0,0,0,0,0,0,0,0,0,0,0,0,0,0,1,
scooby_state_fc1e69ac|49|-1 1,0,0,0,0,0,0,0,0,0,0,0,0,0,0,1,
scooby_state_fc0bda48|4|1 1,0,0,0,0,0,0,0,0,0,0,0,0,0,0,1,
scooby_state_fc1e82a0|58|3 1,0,0,0,0,0,0,0,0,0,0,0,0,0,0,1,
scooby_state_fc152560|62|0 1,0,0,0,0,0,0,0,0,0,0,0,0,0,0,1,
scooby_state_fc33a6d0|10|-53 1,0,0,0,0,0,0,0,0,0,0,0,0,0,0,1,
scooby_state_fc1d2a74|54|54 1,0,0,0,0,0,0,0,0,0,0,0,0,0,0,1,
scooby_state_fc06864c|59|1 1,0,0,0,0,0,0,0,0,0,0,0,0,0,0,1,
scooby_state_fc0bc8f8|35|1 1,0,0,0,0,0,0,0,0,0,0,0,0,0,0,1,
scooby_state_fc06a190|0|-4 1,0,0,0,0,0,0,0,0,0,0,0,0,0,0,1,
scooby_state_fc1fc848|14|1 1,0,0,0,0,0,0,0,0,0,0,0,0,0,0,1,
scooby_state_fc1fc83c|13|13 1,0,0,0,0,0,0,0,0,0,0,0,0,0,0,1,
scooby_state_fc1fc080|15|1 1,0,0,0,0,0,0,0,0,0,0,0,0,0,0,1,
scooby_state_fc1fc560|0|-12 1,0,0,0,0,0,0,0,0,0,0,0,0,0,0,1,
scooby_state_fc1fc55c|63|0 1,0,0,0,0,0,0,0,0,0,0,0,0,0,0,1,
scooby_state_fc1fc318|60|1 1,0,0,0,0,0,0,0,0,0,0,0,0,0,0,1,
scooby_state_fc1fc088|10|1 1,0,0,0,0,0,0,0,0,0,0,0,0,0,0,1,
scooby_state_fc152564|59|-2 1,0,0,0,0,0,0,0,0,0,0,0,0,0,0,1,
scooby_state_fc33a6ec|61|3 1,0,0,0,0,0,0,0,0,0,0,0,0,0,0,1,
scooby_state_fc33a6d0|10|0 1,0,0,0,0,0,0,0,0,0,0,0,0,0,0,1,
scooby_state_fc1fc2c0|55|0 1,0,0,0,0,0,0,0,0,0,0,0,0,0,0,1,
scooby_state_fc1cd2c0|7|3 1,0,0,0,0,0,0,0,0,0,0,0,0,0,0,1,
scooby_state_fc1d2b64|60|-2 1,0,0,0,0,0,0,0,0,0,0,0,0,0,0,1,
scooby_state_fc152560|5|-3 1,0,0,0,0,0,0,0,0,0,0,0,0,0,0,1,
scooby_state_fc1fc318|3|1 1,0,0,0,0,0,0,0,0,0,0,0,0,0,0,1,
scooby_state_fc0a9fd8|27|2 1,0,0,0,0,0,0,0,0,0,0,0,0,0,0,1,
scooby_state_fc1fc088|21|1 1,0,0,0,0,0,0,0,0,0,0,0,0,0,0,1,
scooby_state_fc33a6ec|4|4 1,0,0,0,0,0,0,0,0,0,0,0,0,0,0,1,
scooby_state_fc1fc17c|18|1 1,0,0,0,0,0,0,0,0,0,0,0,0,0,0,1,
scooby_state_fc116fe0|24|-30 1,0,0,0,0,0,0,0,0,0,0,0,0,0,0,1,
scooby_state_fc0ace20|13|-25 1,0,0,0,0,0,0,0,0,0,0,0,0,0,0,1,
scooby_state_fc28935c|63|0 1,0,0,0,0,0,0,0,0,0,0,0,0,0,0,1,
scooby_state_fc0bb238|38|-6 1,0,0,0,0,0,0,0,0,0,0,0,0,0,0,1,
scooby_state_fc1da730|6|-30 1,0,0,0,0,0,0,0,0,0,0,0,0,0,0,1,
scooby_state_fc06863c|42|38 1,0,0,0,0,0,0,0,0,0,0,0,0,0,0,1,
scooby_state_fc1fc848|17|1 1,0,0,0,0,0,0,0,0,0,0,0,0,0,0,1,
scooby_state_fc1fc310|63|1 1,0,0,0,0,0,0,0,0,0,0,0,0,0,0,1,
scooby_state_fc1aa438|27|5 1,0,0,0,0,0,0,0,0,0,0,0,0,0,0,1,
scooby_state_fc069cdc|20|-10 1,0,0,0,0,0,0,0,0,0,0,0,0,0,0,1,
scooby_state_fc1fc088|16|1 1,0,0,0,0,0,0,0,0,0,0,0,0,0,0,1,
scooby_state_fc1da730|27|-29 1,0,0,0,0,0,0,0,0,0,0,0,0,0,0,1,

scooby_action_0_deg_dist 0,1105,0,0,0,0,0,0,0,0,0,0,0,0,0,0,
scooby_action_-6_deg_dist 0,749,10,0,3,0,0,0,0,0,0,0,0,0,0,0,
scooby_action_4_deg_dist 0,3889,27,0,4,0,0,0,0,0,0,0,0,0,0,0,
scooby_action_1_deg_dist 0,625270,196931,0,264077,0,448770,0,0,0,0,0,0,0,0,0,
scooby_action_30_deg_dist 0,648,4,0,0,0,0,0,0,0,0,0,0,0,0,0,
scooby_action_3_deg_dist 0,5556,50,0,52,0,208,0,0,0,0,0,0,0,0,0,
scooby_action_32_deg_dist 0,621,14,0,0,0,0,0,0,0,0,0,0,0,0,0,
scooby_action_5_deg_dist 0,2839,36,0,0,0,0,0,0,0,0,0,0,0,0,0,
scooby_action_10_deg_dist 0,753,9,0,1,0,0,0,0,0,0,0,0,0,0,0,
scooby_action_-1_deg_dist 0,875,18,0,3,0,0,0,0,0,0,0,0,0,0,0,
scooby_action_23_deg_dist 0,606,16,0,0,0,0,0,0,0,0,0,0,0,0,0,
scooby_action_-3_deg_dist 0,1832,15,0,3,0,0,0,0,0,0,0,0,0,0,0,
scooby_action_11_deg_dist 0,765,21,0,1,0,0,0,0,0,0,0,0,0,0,0,
scooby_action_12_deg_dist 0,826,24,0,1,0,0,0,0,0,0,0,0,0,0,0,
scooby_action_22_deg_dist 0,1092,29,0,3,0,0,0,0,0,0,0,0,0,0,0,

scooby_track_called 1557756
scooby_track_same_address 7031
scooby_track_evict 1550469

scooby_reward_demand_called 1557756
scooby_reward_demand_pt_not_found 615892
scooby_reward_demand_pt_found 941864
scooby_reward_demand_pt_found_total 941864
scooby_reward_demand_has_reward 486
scooby_reward_train_called 585589
scooby_reward_assign_reward_called 1550723
scooby_reward_no_pref 1105
scooby_reward_incorrect 584484
scooby_reward_correct_untimely 869573
scooby_reward_correct_timely 71805
scooby_reward_out_of_bounds 23756
scooby_reward_tracker_hit 0

scooby_reward_none_low_bw 1105
scooby_reward_none_high_bw 0
scooby_reward_incorrect_low_bw 584484
scooby_reward_incorrect_high_bw 0
scooby_reward_correct_untimely_low_bw 869573
scooby_reward_correct_untimely_high_bw 0
scooby_reward_correct_timely_low_bw 71805
scooby_reward_correct_timely_high_bw 0
scooby_reward_out_of_bounds_low_bw 23756
scooby_reward_out_of_bounds_high_bw 0
scooby_reward_tracker_hit_low_bw 0
scooby_reward_tracker_hit_high_bw 0

scooby_reward_1 0,572752,863982,70981,21758,0,
scooby_reward_3 0,2731,2549,247,149,0,
scooby_reward_4 0,2165,1428,123,143,0,
scooby_reward_5 0,1774,554,155,157,0,
scooby_reward_10 0,537,54,45,111,0,
scooby_reward_11 0,534,87,35,123,0,
scooby_reward_12 0,582,74,49,138,0,
scooby_reward_22 0,494,303,44,282,0,
scooby_reward_23 0,355,11,34,202,0,
scooby_reward_30 0,328,13,42,266,0,
scooby_reward_32 0,268,18,39,307,0,
scooby_reward_-1 0,551,5,1,13,0,
scooby_reward_-3 0,932,490,10,48,0,
scooby_reward_-6 0,481,5,0,59,0,
scooby_reward_0 1105,0,0,0,0,0,

scooby_train_called 1550468
scooby_train_compute_reward 585589

scooby_register_fill_called 604897
scooby_register_fill_set 169445
scooby_register_fill_set_total 169445

scooby_register_prefetch_hit_called 2979062
scooby_register_prefetch_hit_set 1438500
scooby_register_prefetch_hit_set_total 1438500

scooby_pref_issue_scooby 4516960

learning_engine_featurewise.action.called 1557756
learning_engine_featurewise.action.explore 2877
learning_engine_featurewise.action.exploit 1554879
learning_engine_featurewise.action.fallback 6309
learning_engine_featurewise.action.dyn_fallback_saved_bw 0
learning_engine_featurewise.action.dyn_fallback_saved_bw_acc 17307
learning_engine_featurewise.action.index_1_explored 189
learning_engine_featurewise.action.index_1_exploited 1534859
learning_engine_featurewise.action.index_3_explored 210
learning_engine_featurewise.action.index_3_exploited 5656
learning_engine_featurewise.action.index_4_explored 196
learning_engine_featurewise.action.index_4_exploited 3724
learning_engine_featurewise.action.index_5_explored 185
learning_engine_featurewise.action.index_5_exploited 2690
learning_engine_featurewise.action.index_10_explored 220
learning_engine_featurewise.action.index_10_exploited 543
learning_engine_featurewise.action.index_11_explored 174
learning_engine_featurewise.action.index_11_exploited 613
learning_engine_featurewise.action.index_12_explored 198
learning_engine_featurewise.action.index_12_exploited 653
learning_engine_featurewise.action.index_22_explored 198
learning_engine_featurewise.action.index_22_exploited 926
learning_engine_featurewise.action.index_23_explored 195
learning_engine_featurewise.action.index_23_exploited 427
learning_engine_featurewise.action.index_30_explored 194
learning_engine_featurewise.action.index_30_exploited 458
learning_engine_featurewise.action.index_32_explored 165
learning_engine_featurewise.action.index_32_exploited 470
learning_engine_featurewise.action.index_-1_explored 188
learning_engine_featurewise.action.index_-1_exploited 708
learning_engine_featurewise.action.index_-3_explored 189
learning_engine_featurewise.action.index_-3_exploited 1661
learning_engine_featurewise.action.index_-6_explored 183
learning_engine_featurewise.action.index_-6_exploited 579
learning_engine_featurewise.action.index_0_explored 193
learning_engine_featurewise.action.index_0_exploited 912
learning_engine_featurewise.learn.called 1550468
learning_engine_featurewise.learn.su_skip_PC 0
learning_engine_featurewise.learn.su_skip_PC_Delta 0

learning_engine_featurewise.q_value_histogram.bucket_0 0
learning_engine_featurewise.q_value_histogram.bucket_1 557
learning_engine_featurewise.q_value_histogram.bucket_2 9220
learning_engine_featurewise.q_value_histogram.bucket_3 5271
learning_engine_featurewise.q_value_histogram.bucket_4 85405
learning_engine_featurewise.q_value_histogram.bucket_5 674388
learning_engine_featurewise.q_value_histogram.bucket_6 780038
learning_engine_featurewise.q_value_histogram.bucket_7 0

learning_engine_featurewise.consensus.total 1554879
learning_engine_featurewise.consensus.feature_align_PC 1501073
learning_engine_featurewise.consensus.feature_align_PC_ratio 0.97
learning_engine_featurewise.consensus.feature_align_PC_Delta 1521575
learning_engine_featurewise.consensus.feature_align_PC_Delta_ratio 0.98
learning_engine_featurewise.consensus.feature_align_all 1468310
learning_engine_featurewise.consensus.feature_align_all_ratio 0.94

learning_engine_featurewise.feature_PC_min_weight 1000000.00000000
learning_engine_featurewise.feature_PC_max_weight 0.00000000
learning_engine_featurewise.feature_PC_Delta_min_weight 1000000.00000000
learning_engine_featurewise.feature_PC_Delta_max_weight 0.00000000
unique_pcs 13448
unique_pages 6536
unique_trigger_pcs 4649
total_bitmaps_seen 0
unique_bitmaps_seen 0

scooby_bw_epochs 1266534
scooby_bw_level_0 1246830
scooby_bw_level_1 12369
scooby_bw_level_2 4309
scooby_bw_level_3 3026

scooby_ipc_epochs 0
scooby_ipc_level_0 0
scooby_ipc_level_1 0
scooby_ipc_level_2 0
scooby_ipc_level_3 0

scooby_cache_acc_epochs 115255
scooby_cache_acc_level_0 27550
scooby_cache_acc_level_1 4718
scooby_cache_acc_level_2 5442
scooby_cache_acc_level_3 6347
scooby_cache_acc_level_4 6541
scooby_cache_acc_level_5 6662
scooby_cache_acc_level_6 5257
scooby_cache_acc_level_7 5234
scooby_cache_acc_level_8 6065
scooby_cache_acc_level_9 41439

Channel_0_RQ_row_buffer_hit 114296
Channel_0_RQ_row_buffer_miss 207078
Channel_0_WQ_row_buffer_hit 21839
Channel_0_WQ_row_buffer_miss 187567
Channel_0_WQ_full 7856
Channel_0_dbus_congested 176161

avg_congested_cycle 10

DRAM_bw_pochs 1266534
DRAM_bw_level_0 1246830
DRAM_bw_level_1 12369
DRAM_bw_level_2 4309
DRAM_bw_level_3 3026
