*************************************************
   ChampSim Multicore Out-of-Order Simulator
   Last compiled: Feb  6 2025 20:33:19
*************************************************
parsing config file: /home/wzz/Pythia/config/pythia.ini

trace_0 /home/wzz/Pythia/traces/streaming_phase1_core0.trace.xz
adding L2C_PREFETCHER: Scooby
Initialize SHIP state
warmup_instructions 40000000
simulation_instructions 100000000
champsim_seed 2211
measure_ipc 0
measure_ipc_epoch 1000
measure_dram_bw 1
measure_dram_bw_epoch 256
measure_cache_acc 1
measure_cache_acc_epoch 1024
l1d_perfect 0
l2c_perfect 0
llc_perfect 0
l1d_semi_perfect 0
l2c_semi_perfect 0
llc_semi_perfect 0
semi_perfect_cache_page_buffer_size 64

num_cpus 1
cpu_freq 4000
dram_io_freq 2400
page_size 4096
block_size 64
max_read_per_cycle 8
max_fill_per_cycle 1
dram_channels 1
log2_dram_channels 0
dram_ranks 1
dram_banks 8
dram_rows 65536
dram_columns 128
dram_row_size 8
dram_size 4096
dram_pages 1048576

fetch_width 6
decode_width 6
exec_width 4
lq_width 2
sq_width 2
retire_width 4
scheduler_size 128
branch_mispredict_penalty 20
rob_size 256
lq_size 72
sq_size 56
num_instr_destinations_sparc 4
num_instr_destinations 2
num_instr_sources 4

itlb_set 16
itlb_way 8
itlb_rq_size 16
itlb_wq_size 16
itlb_pq_size 0
itlb_mshr_size 8
itlb_latency 1

dtlb_set 16
dtlb_way 4
dtlb_rq_size 16
dtlb_wq_size 16
dtlb_pq_size 0
dtlb_mshr_size 8
dtlb_latency 1

stlb_set 128
stlb_way 12
stlb_rq_size 32
stlb_wq_size 32
stlb_pq_size 0
stlb_mshr_size 16
stlb_latency 8

l1i_size 32
l1i_set 64
l1i_way 8
l1i_rq_size 64
l1i_wq_size 64
l1i_pq_size 8
l1i_mshr_size 8
l1i_latency 1

l1d_size 32
l1d_set 64
l1d_way 8
l1d_rq_size 64
l1d_wq_size 64
l1d_pq_size 8
l1d_mshr_size 16
l1d_latency 4

l2c_size 256
l2c_set 512
l2c_way 8
l2c_rq_size 32
l2c_wq_size 32
l2c_pq_size 32
l2c_mshr_size 32
l2c_latency 10

llc_size 2048
llc_set 2048
llc_way 16
llc_rq_size 32
llc_wq_size 32
llc_pq_size 32
llc_mshr_size 64
llc_latency 20

dram_channel_width 8
dram_wq_size 64
dram_rq_size 64
tRP 15
tRCD 15
tCAS 12.5
dram_dbus_turn_around_time 30
dram_write_high_wm 56
dram_write_low_wm 48
min_dram_writes_per_switch 16
dram_mtps 2400
dram_dbus_return_time 13

scooby_alpha 0.0065088
scooby_gamma 0.556301
scooby_epsilon 0.00182284
scooby_state_num_bits 10
scooby_max_states 1024
scooby_seed 200
scooby_policy EGreedy
scooby_learning_type SARSA
scooby_actions 1,3,4,5,10,11,12,22,23,30,32,-1,-3,-6,0,
scooby_max_actions 15
scooby_pt_size 256
scooby_st_size 64
scooby_max_pcs 5
scooby_max_offsets 5
scooby_max_deltas 5
scooby_reward_none -4
scooby_reward_incorrect -8
scooby_reward_correct_untimely 12
scooby_reward_correct_timely 20
scooby_brain_zero_init 0
scooby_enable_reward_all 0
scooby_enable_track_multiple 0
scooby_enable_reward_out_of_bounds 1
scooby_reward_out_of_bounds -12
scooby_state_type 1
scooby_state_hash_type 11
scooby_access_debug 0
scooby_print_access_debug 0
scooby_print_access_debug_pc deadbeef
scooby_print_access_debug_pc_count 0
scooby_print_trace 0
scooby_enable_state_action_stats 1
scooby_enable_reward_tracker_hit 0
scooby_reward_tracker_hit -2
scooby_enable_featurewise_engine 1
scooby_pref_degree 1
scooby_enable_dyn_degree 1
scooby_max_to_avg_q_thresholds 0.5,1,2,
scooby_dyn_degrees 1,2,4,4,
scooby_multi_deg_select_type 2
scooby_last_pref_offset_conf_thresholds 1,3,8,
scooby_dyn_degrees_type2 1,2,4,6,
scooby_action_tracker_size 2
scooby_high_bw_thresh 4
scooby_enable_hbw_reward 1
scooby_reward_hbw_correct_timely 20
scooby_reward_hbw_correct_untimely 12
scooby_reward_hbw_incorrect -14
scooby_reward_hbw_none -2
scooby_reward_hbw_out_of_bounds -12
scooby_reward_hbw_tracker_hit -2
scooby_last_pref_offset_conf_thresholds_hbw 1,3,8,
scooby_dyn_degrees_type2_hbw 1,2,4,6,

le_enable_trace 0
le_trace_interval 0
le_trace_file_name 
le_trace_state 0
le_enable_score_plot 0
le_plot_file_name 
le_plot_actions 
le_enable_action_trace 0
le_action_trace_interval 0
le_action_trace_name 
le_enable_action_plot 0

le_featurewise_active_features PC, PC_Delta
le_featurewise_num_tilings 3,3,
le_featurewise_num_tiles 128,128,
le_featurewise_hash_types 2,2,
le_featurewise_enable_tiling_offset 1,1,
le_featurewise_max_q_thresh 0.5
le_featurewise_enable_action_fallback 1
le_featurewise_feature_weights 1,1,
le_featurewise_enable_dynamic_weight 0
le_featurewise_weight_gradient 0.001
le_featurewise_disable_adjust_weight_all_features_align 1
le_featurewise_selective_update 0
le_featurewise_pooling_type 2
le_featurewise_enable_dyn_action_fallback 1
le_featurewise_bw_acc_check_level 1
le_featurewise_acc_thresh 2
le_featurewise_enable_trace 0
le_featurewise_trace_feature_type 0
le_featurewise_trace_feature 
le_featurewise_trace_interval 0
le_featurewise_trace_record_count 0
le_featurewise_trace_file_name 
le_featurewise_enable_score_plot 0
le_featurewise_plot_actions 
le_featurewise_plot_file_name 


Heartbeat CPU  0 instructions:    1000003 cycles:     601953 heartbeat IPC: 1.66126 cumulative IPC: 1.66126 (Simulation time: 0 hr 0 min 1 sec) 
Heartbeat CPU  0 instructions:    2000000 cycles:    1123457 heartbeat IPC: 1.91753 cumulative IPC: 1.78022 (Simulation time: 0 hr 0 min 3 sec) 
Heartbeat CPU  0 instructions:    3000003 cycles:    1616878 heartbeat IPC: 2.02667 cumulative IPC: 1.85543 (Simulation time: 0 hr 0 min 4 sec) 
Heartbeat CPU  0 instructions:    4000000 cycles:    2112298 heartbeat IPC: 2.01848 cumulative IPC: 1.89367 (Simulation time: 0 hr 0 min 5 sec) 
Heartbeat CPU  0 instructions:    5000002 cycles:    2671891 heartbeat IPC: 1.78702 cumulative IPC: 1.87133 (Simulation time: 0 hr 0 min 7 sec) 
Heartbeat CPU  0 instructions:    6000001 cycles:    3203884 heartbeat IPC: 1.87972 cumulative IPC: 1.87273 (Simulation time: 0 hr 0 min 8 sec) 
Heartbeat CPU  0 instructions:    7000001 cycles:    3798953 heartbeat IPC: 1.68048 cumulative IPC: 1.84261 (Simulation time: 0 hr 0 min 9 sec) 
Heartbeat CPU  0 instructions:    8000000 cycles:    4336271 heartbeat IPC: 1.86109 cumulative IPC: 1.84490 (Simulation time: 0 hr 0 min 10 sec) 
Heartbeat CPU  0 instructions:    9000000 cycles:    4852344 heartbeat IPC: 1.93771 cumulative IPC: 1.85477 (Simulation time: 0 hr 0 min 12 sec) 
Heartbeat CPU  0 instructions:   10000003 cycles:    5388914 heartbeat IPC: 1.86370 cumulative IPC: 1.85566 (Simulation time: 0 hr 0 min 13 sec) 
Heartbeat CPU  0 instructions:   11000002 cycles:    5928795 heartbeat IPC: 1.85226 cumulative IPC: 1.85535 (Simulation time: 0 hr 0 min 14 sec) 
Heartbeat CPU  0 instructions:   12000000 cycles:    6425189 heartbeat IPC: 2.01452 cumulative IPC: 1.86765 (Simulation time: 0 hr 0 min 16 sec) 
Heartbeat CPU  0 instructions:   13000001 cycles:    6920181 heartbeat IPC: 2.02024 cumulative IPC: 1.87856 (Simulation time: 0 hr 0 min 17 sec) 
Heartbeat CPU  0 instructions:   14000002 cycles:    7396490 heartbeat IPC: 2.09948 cumulative IPC: 1.89279 (Simulation time: 0 hr 0 min 18 sec) 
Heartbeat CPU  0 instructions:   15000002 cycles:    7873900 heartbeat IPC: 2.09464 cumulative IPC: 1.90503 (Simulation time: 0 hr 0 min 20 sec) 
Heartbeat CPU  0 instructions:   16000000 cycles:    8339829 heartbeat IPC: 2.14625 cumulative IPC: 1.91850 (Simulation time: 0 hr 0 min 21 sec) 
Heartbeat CPU  0 instructions:   17000000 cycles:    8832951 heartbeat IPC: 2.02790 cumulative IPC: 1.92461 (Simulation time: 0 hr 0 min 23 sec) 
Heartbeat CPU  0 instructions:   18000002 cycles:    9283106 heartbeat IPC: 2.22146 cumulative IPC: 1.93901 (Simulation time: 0 hr 0 min 24 sec) 
Heartbeat CPU  0 instructions:   19000001 cycles:    9722362 heartbeat IPC: 2.27657 cumulative IPC: 1.95426 (Simulation time: 0 hr 0 min 25 sec) 
Heartbeat CPU  0 instructions:   20000000 cycles:   10235258 heartbeat IPC: 1.94971 cumulative IPC: 1.95403 (Simulation time: 0 hr 0 min 27 sec) 
Heartbeat CPU  0 instructions:   21000001 cycles:   10728902 heartbeat IPC: 2.02575 cumulative IPC: 1.95733 (Simulation time: 0 hr 0 min 28 sec) 
Heartbeat CPU  0 instructions:   22000000 cycles:   11211876 heartbeat IPC: 2.07050 cumulative IPC: 1.96221 (Simulation time: 0 hr 0 min 29 sec) 
Heartbeat CPU  0 instructions:   23000000 cycles:   11671108 heartbeat IPC: 2.17755 cumulative IPC: 1.97068 (Simulation time: 0 hr 0 min 31 sec) 
Heartbeat CPU  0 instructions:   24000000 cycles:   12130866 heartbeat IPC: 2.17506 cumulative IPC: 1.97842 (Simulation time: 0 hr 0 min 32 sec) 
Heartbeat CPU  0 instructions:   25000003 cycles:   12603483 heartbeat IPC: 2.11588 cumulative IPC: 1.98358 (Simulation time: 0 hr 0 min 33 sec) 
Heartbeat CPU  0 instructions:   26000000 cycles:   13085043 heartbeat IPC: 2.07658 cumulative IPC: 1.98700 (Simulation time: 0 hr 0 min 35 sec) 
Heartbeat CPU  0 instructions:   27000003 cycles:   13581304 heartbeat IPC: 2.01507 cumulative IPC: 1.98803 (Simulation time: 0 hr 0 min 36 sec) 
Heartbeat CPU  0 instructions:   28000000 cycles:   14064550 heartbeat IPC: 2.06933 cumulative IPC: 1.99082 (Simulation time: 0 hr 0 min 37 sec) 
Heartbeat CPU  0 instructions:   29000001 cycles:   14532967 heartbeat IPC: 2.13485 cumulative IPC: 1.99546 (Simulation time: 0 hr 0 min 39 sec) 
Heartbeat CPU  0 instructions:   30000001 cycles:   15020107 heartbeat IPC: 2.05280 cumulative IPC: 1.99732 (Simulation time: 0 hr 0 min 40 sec) 
Heartbeat CPU  0 instructions:   31000000 cycles:   15503380 heartbeat IPC: 2.06922 cumulative IPC: 1.99956 (Simulation time: 0 hr 0 min 41 sec) 
Heartbeat CPU  0 instructions:   32000000 cycles:   15979588 heartbeat IPC: 2.09992 cumulative IPC: 2.00255 (Simulation time: 0 hr 0 min 42 sec) 
Heartbeat CPU  0 instructions:   33000000 cycles:   16462176 heartbeat IPC: 2.07216 cumulative IPC: 2.00460 (Simulation time: 0 hr 0 min 44 sec) 
Heartbeat CPU  0 instructions:   34000003 cycles:   16963820 heartbeat IPC: 1.99345 cumulative IPC: 2.00427 (Simulation time: 0 hr 0 min 45 sec) 
Heartbeat CPU  0 instructions:   35000000 cycles:   17440690 heartbeat IPC: 2.09700 cumulative IPC: 2.00680 (Simulation time: 0 hr 0 min 46 sec) 
Heartbeat CPU  0 instructions:   36000000 cycles:   17903922 heartbeat IPC: 2.15875 cumulative IPC: 2.01073 (Simulation time: 0 hr 0 min 48 sec) 
Heartbeat CPU  0 instructions:   37000003 cycles:   18405218 heartbeat IPC: 1.99484 cumulative IPC: 2.01030 (Simulation time: 0 hr 0 min 49 sec) 
Heartbeat CPU  0 instructions:   38000002 cycles:   18922416 heartbeat IPC: 1.93349 cumulative IPC: 2.00820 (Simulation time: 0 hr 0 min 50 sec) 
Heartbeat CPU  0 instructions:   39000003 cycles:   19446345 heartbeat IPC: 1.90866 cumulative IPC: 2.00552 (Simulation time: 0 hr 0 min 52 sec) 
Heartbeat CPU  0 instructions:   40000000 cycles:   19967784 heartbeat IPC: 1.91776 cumulative IPC: 2.00323 (Simulation time: 0 hr 0 min 53 sec) 

Warmup complete CPU  0 instructions:   40000002 cycles:   19967785 (Simulation time: 0 hr 0 min 53 sec) 

Heartbeat CPU  0 instructions:   41000002 cycles:   24717107 heartbeat IPC: 0.21056 cumulative IPC: 0.21056 (Simulation time: 0 hr 0 min 55 sec) 
Heartbeat CPU  0 instructions:   42000001 cycles:   29521817 heartbeat IPC: 0.20813 cumulative IPC: 0.20934 (Simulation time: 0 hr 0 min 56 sec) 
Heartbeat CPU  0 instructions:   43000003 cycles:   34464578 heartbeat IPC: 0.20232 cumulative IPC: 0.20694 (Simulation time: 0 hr 0 min 58 sec) 
Heartbeat CPU  0 instructions:   44000000 cycles:   39218265 heartbeat IPC: 0.21036 cumulative IPC: 0.20779 (Simulation time: 0 hr 0 min 59 sec) 
Heartbeat CPU  0 instructions:   45000001 cycles:   44078121 heartbeat IPC: 0.20577 cumulative IPC: 0.20738 (Simulation time: 0 hr 1 min 1 sec) 
Heartbeat CPU  0 instructions:   46000000 cycles:   48827493 heartbeat IPC: 0.21055 cumulative IPC: 0.20790 (Simulation time: 0 hr 1 min 3 sec) 
Heartbeat CPU  0 instructions:   47000000 cycles:   53396447 heartbeat IPC: 0.21887 cumulative IPC: 0.20940 (Simulation time: 0 hr 1 min 4 sec) 
Heartbeat CPU  0 instructions:   48000000 cycles:   58033382 heartbeat IPC: 0.21566 cumulative IPC: 0.21016 (Simulation time: 0 hr 1 min 6 sec) 
Heartbeat CPU  0 instructions:   49000002 cycles:   62577864 heartbeat IPC: 0.22005 cumulative IPC: 0.21122 (Simulation time: 0 hr 1 min 7 sec) 
Heartbeat CPU  0 instructions:   50000002 cycles:   67327480 heartbeat IPC: 0.21054 cumulative IPC: 0.21115 (Simulation time: 0 hr 1 min 9 sec) 
Heartbeat CPU  0 instructions:   51000001 cycles:   72048654 heartbeat IPC: 0.21181 cumulative IPC: 0.21121 (Simulation time: 0 hr 1 min 11 sec) 
Heartbeat CPU  0 instructions:   52000000 cycles:   76711198 heartbeat IPC: 0.21447 cumulative IPC: 0.21148 (Simulation time: 0 hr 1 min 12 sec) 
Heartbeat CPU  0 instructions:   53000001 cycles:   81442183 heartbeat IPC: 0.21137 cumulative IPC: 0.21147 (Simulation time: 0 hr 1 min 14 sec) 
Heartbeat CPU  0 instructions:   54000001 cycles:   86112906 heartbeat IPC: 0.21410 cumulative IPC: 0.21166 (Simulation time: 0 hr 1 min 15 sec) 
Heartbeat CPU  0 instructions:   55000000 cycles:   90752618 heartbeat IPC: 0.21553 cumulative IPC: 0.21191 (Simulation time: 0 hr 1 min 17 sec) 
Heartbeat CPU  0 instructions:   56000000 cycles:   95448960 heartbeat IPC: 0.21293 cumulative IPC: 0.21197 (Simulation time: 0 hr 1 min 19 sec) 
Heartbeat CPU  0 instructions:   57000001 cycles:  100125434 heartbeat IPC: 0.21384 cumulative IPC: 0.21208 (Simulation time: 0 hr 1 min 20 sec) 
Heartbeat CPU  0 instructions:   58000003 cycles:  104743805 heartbeat IPC: 0.21653 cumulative IPC: 0.21232 (Simulation time: 0 hr 1 min 22 sec) 
Heartbeat CPU  0 instructions:   59000002 cycles:  109409127 heartbeat IPC: 0.21435 cumulative IPC: 0.21243 (Simulation time: 0 hr 1 min 24 sec) 
Heartbeat CPU  0 instructions:   60000000 cycles:  114063281 heartbeat IPC: 0.21486 cumulative IPC: 0.21255 (Simulation time: 0 hr 1 min 25 sec) 
Heartbeat CPU  0 instructions:   61000001 cycles:  118801092 heartbeat IPC: 0.21107 cumulative IPC: 0.21248 (Simulation time: 0 hr 1 min 27 sec) 
Heartbeat CPU  0 instructions:   62000001 cycles:  123411967 heartbeat IPC: 0.21688 cumulative IPC: 0.21268 (Simulation time: 0 hr 1 min 28 sec) 
Heartbeat CPU  0 instructions:   63000001 cycles:  124252862 heartbeat IPC: 1.18921 cumulative IPC: 0.22055 (Simulation time: 0 hr 1 min 29 sec) 
Heartbeat CPU  0 instructions:   64000000 cycles:  124817503 heartbeat IPC: 1.77104 cumulative IPC: 0.22890 (Simulation time: 0 hr 1 min 30 sec) 
Heartbeat CPU  0 instructions:   65000000 cycles:  125460824 heartbeat IPC: 1.55443 cumulative IPC: 0.23698 (Simulation time: 0 hr 1 min 31 sec) 
Heartbeat CPU  0 instructions:   66000003 cycles:  126056406 heartbeat IPC: 1.67903 cumulative IPC: 0.24508 (Simulation time: 0 hr 1 min 32 sec) 
Heartbeat CPU  0 instructions:   67000001 cycles:  126605776 heartbeat IPC: 1.82026 cumulative IPC: 0.25319 (Simulation time: 0 hr 1 min 33 sec) 
Heartbeat CPU  0 instructions:   68000000 cycles:  127148538 heartbeat IPC: 1.84243 cumulative IPC: 0.26124 (Simulation time: 0 hr 1 min 34 sec) 
Heartbeat CPU  0 instructions:   69000003 cycles:  131185423 heartbeat IPC: 0.24772 cumulative IPC: 0.26075 (Simulation time: 0 hr 1 min 35 sec) 
Heartbeat CPU  0 instructions:   70000001 cycles:  135833235 heartbeat IPC: 0.21515 cumulative IPC: 0.25892 (Simulation time: 0 hr 1 min 37 sec) 
Heartbeat CPU  0 instructions:   71000000 cycles:  140381683 heartbeat IPC: 0.21985 cumulative IPC: 0.25745 (Simulation time: 0 hr 1 min 38 sec) 
Heartbeat CPU  0 instructions:   72000000 cycles:  144940850 heartbeat IPC: 0.21934 cumulative IPC: 0.25606 (Simulation time: 0 hr 1 min 40 sec) 
Heartbeat CPU  0 instructions:   73000001 cycles:  149585697 heartbeat IPC: 0.21529 cumulative IPC: 0.25459 (Simulation time: 0 hr 1 min 41 sec) 
Heartbeat CPU  0 instructions:   74000003 cycles:  151989220 heartbeat IPC: 0.41606 cumulative IPC: 0.25753 (Simulation time: 0 hr 1 min 43 sec) 
Heartbeat CPU  0 instructions:   75000000 cycles:  155433760 heartbeat IPC: 0.29031 cumulative IPC: 0.25837 (Simulation time: 0 hr 1 min 44 sec) 
Heartbeat CPU  0 instructions:   76000000 cycles:  160223465 heartbeat IPC: 0.20878 cumulative IPC: 0.25667 (Simulation time: 0 hr 1 min 46 sec) 
Heartbeat CPU  0 instructions:   77000000 cycles:  164930558 heartbeat IPC: 0.21245 cumulative IPC: 0.25524 (Simulation time: 0 hr 1 min 47 sec) 
Heartbeat CPU  0 instructions:   78000002 cycles:  169631789 heartbeat IPC: 0.21271 cumulative IPC: 0.25390 (Simulation time: 0 hr 1 min 49 sec) 
Heartbeat CPU  0 instructions:   79000003 cycles:  174247577 heartbeat IPC: 0.21665 cumulative IPC: 0.25279 (Simulation time: 0 hr 1 min 50 sec) 
Heartbeat CPU  0 instructions:   80000000 cycles:  179012589 heartbeat IPC: 0.20986 cumulative IPC: 0.25150 (Simulation time: 0 hr 1 min 52 sec) 
Heartbeat CPU  0 instructions:   81000003 cycles:  183762283 heartbeat IPC: 0.21054 cumulative IPC: 0.25031 (Simulation time: 0 hr 1 min 54 sec) 
Heartbeat CPU  0 instructions:   82000001 cycles:  188387869 heartbeat IPC: 0.21619 cumulative IPC: 0.24938 (Simulation time: 0 hr 1 min 55 sec) 
Heartbeat CPU  0 instructions:   83000000 cycles:  193062685 heartbeat IPC: 0.21391 cumulative IPC: 0.24842 (Simulation time: 0 hr 1 min 57 sec) 
Heartbeat CPU  0 instructions:   84000000 cycles:  197754347 heartbeat IPC: 0.21314 cumulative IPC: 0.24749 (Simulation time: 0 hr 1 min 58 sec) 
Heartbeat CPU  0 instructions:   85000000 cycles:  202600847 heartbeat IPC: 0.20633 cumulative IPC: 0.24640 (Simulation time: 0 hr 2 min 0 sec) 
Heartbeat CPU  0 instructions:   86000003 cycles:  207199551 heartbeat IPC: 0.21745 cumulative IPC: 0.24568 (Simulation time: 0 hr 2 min 1 sec) 
Heartbeat CPU  0 instructions:   87000003 cycles:  212031775 heartbeat IPC: 0.20694 cumulative IPC: 0.24471 (Simulation time: 0 hr 2 min 3 sec) 
Heartbeat CPU  0 instructions:   88000000 cycles:  216801047 heartbeat IPC: 0.20967 cumulative IPC: 0.24386 (Simulation time: 0 hr 2 min 5 sec) 
Heartbeat CPU  0 instructions:   89000001 cycles:  221430478 heartbeat IPC: 0.21601 cumulative IPC: 0.24322 (Simulation time: 0 hr 2 min 6 sec) 
Heartbeat CPU  0 instructions:   90000000 cycles:  226132432 heartbeat IPC: 0.21268 cumulative IPC: 0.24252 (Simulation time: 0 hr 2 min 8 sec) 
Heartbeat CPU  0 instructions:   91000002 cycles:  230817759 heartbeat IPC: 0.21343 cumulative IPC: 0.24188 (Simulation time: 0 hr 2 min 10 sec) 
Heartbeat CPU  0 instructions:   92000000 cycles:  235594535 heartbeat IPC: 0.20935 cumulative IPC: 0.24116 (Simulation time: 0 hr 2 min 11 sec) 
Heartbeat CPU  0 instructions:   93000000 cycles:  240335022 heartbeat IPC: 0.21095 cumulative IPC: 0.24051 (Simulation time: 0 hr 2 min 13 sec) 
Heartbeat CPU  0 instructions:   94000000 cycles:  245100839 heartbeat IPC: 0.20983 cumulative IPC: 0.23986 (Simulation time: 0 hr 2 min 14 sec) 
Heartbeat CPU  0 instructions:   95000000 cycles:  249860165 heartbeat IPC: 0.21011 cumulative IPC: 0.23924 (Simulation time: 0 hr 2 min 16 sec) 
Heartbeat CPU  0 instructions:   96000000 cycles:  254565782 heartbeat IPC: 0.21251 cumulative IPC: 0.23871 (Simulation time: 0 hr 2 min 18 sec) 
Heartbeat CPU  0 instructions:   97000003 cycles:  259240542 heartbeat IPC: 0.21392 cumulative IPC: 0.23822 (Simulation time: 0 hr 2 min 19 sec) 
Heartbeat CPU  0 instructions:   98000002 cycles:  264003290 heartbeat IPC: 0.20996 cumulative IPC: 0.23767 (Simulation time: 0 hr 2 min 21 sec) 
Heartbeat CPU  0 instructions:   99000000 cycles:  268933843 heartbeat IPC: 0.20282 cumulative IPC: 0.23698 (Simulation time: 0 hr 2 min 23 sec) 
*** Reached end of trace for Core: 0 Repeating trace: /home/wzz/Pythia/traces/streaming_phase1_core0.trace.xz
Heartbeat CPU  0 instructions:  100000000 cycles:  273691554 heartbeat IPC: 0.21019 cumulative IPC: 0.23648 (Simulation time: 0 hr 2 min 24 sec) 
Heartbeat CPU  0 instructions:  101000001 cycles:  278344447 heartbeat IPC: 0.21492 cumulative IPC: 0.23609 (Simulation time: 0 hr 2 min 26 sec) 
Heartbeat CPU  0 instructions:  102000000 cycles:  282926517 heartbeat IPC: 0.21824 cumulative IPC: 0.23578 (Simulation time: 0 hr 2 min 27 sec) 
Heartbeat CPU  0 instructions:  103000000 cycles:  287665169 heartbeat IPC: 0.21103 cumulative IPC: 0.23534 (Simulation time: 0 hr 2 min 29 sec) 
Heartbeat CPU  0 instructions:  104000000 cycles:  292263984 heartbeat IPC: 0.21745 cumulative IPC: 0.23504 (Simulation time: 0 hr 2 min 31 sec) 
Heartbeat CPU  0 instructions:  105000002 cycles:  296886084 heartbeat IPC: 0.21635 cumulative IPC: 0.23473 (Simulation time: 0 hr 2 min 32 sec) 
Heartbeat CPU  0 instructions:  106000002 cycles:  300863222 heartbeat IPC: 0.25144 cumulative IPC: 0.23496 (Simulation time: 0 hr 2 min 34 sec) 
Heartbeat CPU  0 instructions:  107000001 cycles:  304923509 heartbeat IPC: 0.24629 cumulative IPC: 0.23512 (Simulation time: 0 hr 2 min 35 sec) 
Heartbeat CPU  0 instructions:  108000000 cycles:  309396661 heartbeat IPC: 0.22356 cumulative IPC: 0.23495 (Simulation time: 0 hr 2 min 37 sec) 
Heartbeat CPU  0 instructions:  109000002 cycles:  313997558 heartbeat IPC: 0.21735 cumulative IPC: 0.23467 (Simulation time: 0 hr 2 min 38 sec) 
Heartbeat CPU  0 instructions:  110000001 cycles:  318644676 heartbeat IPC: 0.21519 cumulative IPC: 0.23437 (Simulation time: 0 hr 2 min 40 sec) 
Heartbeat CPU  0 instructions:  111000001 cycles:  323260797 heartbeat IPC: 0.21663 cumulative IPC: 0.23410 (Simulation time: 0 hr 2 min 41 sec) 
Heartbeat CPU  0 instructions:  112000000 cycles:  327864881 heartbeat IPC: 0.21720 cumulative IPC: 0.23384 (Simulation time: 0 hr 2 min 43 sec) 
Heartbeat CPU  0 instructions:  113000002 cycles:  332416084 heartbeat IPC: 0.21972 cumulative IPC: 0.23364 (Simulation time: 0 hr 2 min 44 sec) 
Heartbeat CPU  0 instructions:  114000001 cycles:  337090132 heartbeat IPC: 0.21395 cumulative IPC: 0.23335 (Simulation time: 0 hr 2 min 46 sec) 
Heartbeat CPU  0 instructions:  115000001 cycles:  341721888 heartbeat IPC: 0.21590 cumulative IPC: 0.23310 (Simulation time: 0 hr 2 min 48 sec) 
Heartbeat CPU  0 instructions:  116000000 cycles:  346395561 heartbeat IPC: 0.21396 cumulative IPC: 0.23282 (Simulation time: 0 hr 2 min 49 sec) 
Heartbeat CPU  0 instructions:  117000002 cycles:  350989778 heartbeat IPC: 0.21767 cumulative IPC: 0.23261 (Simulation time: 0 hr 2 min 51 sec) 
Heartbeat CPU  0 instructions:  118000001 cycles:  355595514 heartbeat IPC: 0.21712 cumulative IPC: 0.23240 (Simulation time: 0 hr 2 min 52 sec) 
Heartbeat CPU  0 instructions:  119000002 cycles:  360119593 heartbeat IPC: 0.22104 cumulative IPC: 0.23225 (Simulation time: 0 hr 2 min 54 sec) 
Heartbeat CPU  0 instructions:  120000000 cycles:  364638675 heartbeat IPC: 0.22128 cumulative IPC: 0.23211 (Simulation time: 0 hr 2 min 56 sec) 
Heartbeat CPU  0 instructions:  121000003 cycles:  369129696 heartbeat IPC: 0.22267 cumulative IPC: 0.23198 (Simulation time: 0 hr 2 min 57 sec) 
Heartbeat CPU  0 instructions:  122000001 cycles:  373691953 heartbeat IPC: 0.21919 cumulative IPC: 0.23182 (Simulation time: 0 hr 2 min 59 sec) 
Heartbeat CPU  0 instructions:  123000000 cycles:  378427091 heartbeat IPC: 0.21119 cumulative IPC: 0.23155 (Simulation time: 0 hr 3 min 0 sec) 
Heartbeat CPU  0 instructions:  124000000 cycles:  383135884 heartbeat IPC: 0.21237 cumulative IPC: 0.23130 (Simulation time: 0 hr 3 min 2 sec) 
Heartbeat CPU  0 instructions:  125000002 cycles:  387938014 heartbeat IPC: 0.20824 cumulative IPC: 0.23100 (Simulation time: 0 hr 3 min 4 sec) 
Heartbeat CPU  0 instructions:  126000001 cycles:  392579078 heartbeat IPC: 0.21547 cumulative IPC: 0.23080 (Simulation time: 0 hr 3 min 5 sec) 
Heartbeat CPU  0 instructions:  127000002 cycles:  397174494 heartbeat IPC: 0.21761 cumulative IPC: 0.23064 (Simulation time: 0 hr 3 min 7 sec) 
Heartbeat CPU  0 instructions:  128000000 cycles:  401777817 heartbeat IPC: 0.21723 cumulative IPC: 0.23048 (Simulation time: 0 hr 3 min 9 sec) 
Heartbeat CPU  0 instructions:  129000003 cycles:  406391755 heartbeat IPC: 0.21674 cumulative IPC: 0.23032 (Simulation time: 0 hr 3 min 10 sec) 
Heartbeat CPU  0 instructions:  130000000 cycles:  410924980 heartbeat IPC: 0.22059 cumulative IPC: 0.23020 (Simulation time: 0 hr 3 min 12 sec) 
Heartbeat CPU  0 instructions:  131000002 cycles:  415430805 heartbeat IPC: 0.22194 cumulative IPC: 0.23011 (Simulation time: 0 hr 3 min 13 sec) 
Heartbeat CPU  0 instructions:  132000000 cycles:  419973049 heartbeat IPC: 0.22016 cumulative IPC: 0.23000 (Simulation time: 0 hr 3 min 15 sec) 
Heartbeat CPU  0 instructions:  133000001 cycles:  424548826 heartbeat IPC: 0.21854 cumulative IPC: 0.22987 (Simulation time: 0 hr 3 min 16 sec) 
Heartbeat CPU  0 instructions:  134000000 cycles:  429097905 heartbeat IPC: 0.21982 cumulative IPC: 0.22976 (Simulation time: 0 hr 3 min 18 sec) 
Heartbeat CPU  0 instructions:  135000001 cycles:  433664362 heartbeat IPC: 0.21899 cumulative IPC: 0.22964 (Simulation time: 0 hr 3 min 20 sec) 
Heartbeat CPU  0 instructions:  136000000 cycles:  438285030 heartbeat IPC: 0.21642 cumulative IPC: 0.22949 (Simulation time: 0 hr 3 min 21 sec) 
Heartbeat CPU  0 instructions:  137000003 cycles:  442959488 heartbeat IPC: 0.21393 cumulative IPC: 0.22932 (Simulation time: 0 hr 3 min 23 sec) 
Heartbeat CPU  0 instructions:  138000000 cycles:  447676024 heartbeat IPC: 0.21202 cumulative IPC: 0.22913 (Simulation time: 0 hr 3 min 25 sec) 
Heartbeat CPU  0 instructions:  139000001 cycles:  452249702 heartbeat IPC: 0.21864 cumulative IPC: 0.22902 (Simulation time: 0 hr 3 min 26 sec) 
Heartbeat CPU  0 instructions:  140000000 cycles:  456957279 heartbeat IPC: 0.21242 cumulative IPC: 0.22884 (Simulation time: 0 hr 3 min 28 sec) 
Finished CPU 0 instructions: 100000000 cycles: 436989502 cumulative IPC: 0.22884 (Simulation time: 0 hr 3 min 28 sec) 

ChampSim completed all CPUs

[ROI Statistics]
Core_0_instructions 100000000
Core_0_cycles 436989502
Core_0_IPC 0.22884

Core_0_branch_prediction_accuracy 97.34402
Core_0_branch_MPKI 4.87883
Core_0_average_ROB_occupancy_at_mispredict 84.58578

Core_0_L1D_total_access 15659897
Core_0_L1D_total_hit 13759527
Core_0_L1D_total_miss 1900370
Core_0_L1D_loads 9099847
Core_0_L1D_load_hit 7714668
Core_0_L1D_load_miss 1385179
Core_0_L1D_RFOs 6560050
Core_0_L1D_RFO_hit 6044859
Core_0_L1D_RFO_miss 515191
Core_0_L1D_prefetches 0
Core_0_L1D_prefetch_hit 0
Core_0_L1D_prefetch_miss 0
Core_0_L1D_writebacks 0
Core_0_L1D_writeback_hit 0
Core_0_L1D_writeback_miss 0
Core_0_L1D_prefetch_requested 0
Core_0_L1D_prefetch_dropped 0
Core_0_L1D_prefetch_issued 0
Core_0_L1D_prefetch_filled 0
Core_0_L1D_prefetch_useful 0
Core_0_L1D_prefetch_useless 0
Core_0_L1D_prefetch_late 0
Core_0_L1D_average_miss_latency 91.47502

Core_0_L1D_rq_access 17329935
Core_0_L1D_rq_forward 0
Core_0_L1D_rq_merged 7908192
Core_0_L1D_rq_to_cache 9420011
Core_0_L1D_rq_full 0

Core_0_L1D_wq_access 8503136
Core_0_L1D_wq_forward 1732
Core_0_L1D_wq_merged 24650
Core_0_L1D_wq_to_cache 8478486
Core_0_L1D_wq_full 0

Core_0_L1D_pq_access 0
Core_0_L1D_pq_forward 0
Core_0_L1D_pq_merged 0
Core_0_L1D_pq_to_cache 0
Core_0_L1D_pq_full 0

Core_0_L1D_acc_epochs 112529
Core_0_L1D_acc_level_0 112529
Core_0_L1D_acc_level_1 0
Core_0_L1D_acc_level_2 0
Core_0_L1D_acc_level_3 0
Core_0_L1D_acc_level_4 0
Core_0_L1D_acc_level_5 0
Core_0_L1D_acc_level_6 0
Core_0_L1D_acc_level_7 0
Core_0_L1D_acc_level_8 0
Core_0_L1D_acc_level_9 0

Core_0_L1I_total_access 21553233
Core_0_L1I_total_hit 17672998
Core_0_L1I_total_miss 3880235
Core_0_L1I_loads 21553233
Core_0_L1I_load_hit 17672998
Core_0_L1I_load_miss 3880235
Core_0_L1I_RFOs 0
Core_0_L1I_RFO_hit 0
Core_0_L1I_RFO_miss 0
Core_0_L1I_prefetches 0
Core_0_L1I_prefetch_hit 0
Core_0_L1I_prefetch_miss 0
Core_0_L1I_writebacks 0
Core_0_L1I_writeback_hit 0
Core_0_L1I_writeback_miss 0
Core_0_L1I_prefetch_requested 0
Core_0_L1I_prefetch_dropped 0
Core_0_L1I_prefetch_issued 0
Core_0_L1I_prefetch_filled 0
Core_0_L1I_prefetch_useful 0
Core_0_L1I_prefetch_useless 0
Core_0_L1I_prefetch_late 0
Core_0_L1I_average_miss_latency 85.29931

Core_0_L1I_rq_access 100000102
Core_0_L1I_rq_forward 0
Core_0_L1I_rq_merged 76184875
Core_0_L1I_rq_to_cache 23815227
Core_0_L1I_rq_full 0

Core_0_L1I_wq_access 0
Core_0_L1I_wq_forward 0
Core_0_L1I_wq_merged 0
Core_0_L1I_wq_to_cache 0
Core_0_L1I_wq_full 0

Core_0_L1I_pq_access 0
Core_0_L1I_pq_forward 0
Core_0_L1I_pq_merged 0
Core_0_L1I_pq_to_cache 0
Core_0_L1I_pq_full 0

Core_0_L1I_acc_epochs 112529
Core_0_L1I_acc_level_0 112529
Core_0_L1I_acc_level_1 0
Core_0_L1I_acc_level_2 0
Core_0_L1I_acc_level_3 0
Core_0_L1I_acc_level_4 0
Core_0_L1I_acc_level_5 0
Core_0_L1I_acc_level_6 0
Core_0_L1I_acc_level_7 0
Core_0_L1I_acc_level_8 0
Core_0_L1I_acc_level_9 0

Core_0_L2C_total_access 12220163
Core_0_L2C_total_hit 10991526
Core_0_L2C_total_miss 1228637
Core_0_L2C_loads 5265200
Core_0_L2C_load_hit 4874506
Core_0_L2C_load_miss 390694
Core_0_L2C_RFOs 514875
Core_0_L2C_RFO_hit 278991
Core_0_L2C_RFO_miss 235884
Core_0_L2C_prefetches 5718270
Core_0_L2C_prefetch_hit 5132923
Core_0_L2C_prefetch_miss 585347
Core_0_L2C_writebacks 721818
Core_0_L2C_writeback_hit 705106
Core_0_L2C_writeback_miss 16712
Core_0_L2C_prefetch_requested 9863998
Core_0_L2C_prefetch_dropped 16826
Core_0_L2C_prefetch_issued 9847172
Core_0_L2C_prefetch_filled 826223
Core_0_L2C_prefetch_useful 413403
Core_0_L2C_prefetch_useless 411609
Core_0_L2C_prefetch_late 75685
Core_0_L2C_average_miss_latency 126.51170

Core_0_L2C_rq_access 5780604
Core_0_L2C_rq_forward 0
Core_0_L2C_rq_merged 0
Core_0_L2C_rq_to_cache 5780075
Core_0_L2C_rq_full 0

Core_0_L2C_wq_access 721818
Core_0_L2C_wq_forward 536
Core_0_L2C_wq_merged 0
Core_0_L2C_wq_to_cache 721818
Core_0_L2C_wq_full 0

Core_0_L2C_pq_access 9847172
Core_0_L2C_pq_forward 0
Core_0_L2C_pq_merged 702913
Core_0_L2C_pq_to_cache 9144252
Core_0_L2C_pq_full 0

Core_0_L2C_acc_epochs 112529
Core_0_L2C_acc_level_0 23919
Core_0_L2C_acc_level_1 20807
Core_0_L2C_acc_level_2 19491
Core_0_L2C_acc_level_3 13548
Core_0_L2C_acc_level_4 8730
Core_0_L2C_acc_level_5 9149
Core_0_L2C_acc_level_6 4268
Core_0_L2C_acc_level_7 2236
Core_0_L2C_acc_level_8 1543
Core_0_L2C_acc_level_9 8838

Core_0_LLC_total_access 1524099
Core_0_LLC_total_hit 1075971
Core_0_LLC_total_miss 448128
Core_0_LLC_loads 315227
Core_0_LLC_load_hit 245626
Core_0_LLC_load_miss 69601
Core_0_LLC_RFOs 235834
Core_0_LLC_RFO_hit 156818
Core_0_LLC_RFO_miss 79016
Core_0_LLC_prefetches 660827
Core_0_LLC_prefetch_hit 378013
Core_0_LLC_prefetch_miss 282814
Core_0_LLC_writebacks 312211
Core_0_LLC_writeback_hit 295514
Core_0_LLC_writeback_miss 16697
Core_0_LLC_prefetch_requested 0
Core_0_LLC_prefetch_dropped 0
Core_0_LLC_prefetch_issued 0
Core_0_LLC_prefetch_filled 382521
Core_0_LLC_prefetch_useful 10448
Core_0_LLC_prefetch_useless 360115
Core_0_LLC_prefetch_late 0
Core_0_LLC_average_miss_latency 205.95406

Core_0_LLC_rq_access 551096
Core_0_LLC_rq_forward 0
Core_0_LLC_rq_merged 0
Core_0_LLC_rq_to_cache 551061
Core_0_LLC_rq_full 0

Core_0_LLC_wq_access 312211
Core_0_LLC_wq_forward 37
Core_0_LLC_wq_merged 0
Core_0_LLC_wq_to_cache 312211
Core_0_LLC_wq_full 0

Core_0_LLC_pq_access 901908
Core_0_LLC_pq_forward 0
Core_0_LLC_pq_merged 0
Core_0_LLC_pq_to_cache 901906
Core_0_LLC_pq_full 0

Core_0_LLC_acc_epochs 446248
Core_0_LLC_acc_level_0 438570
Core_0_LLC_acc_level_1 3223
Core_0_LLC_acc_level_2 2075
Core_0_LLC_acc_level_3 400
Core_0_LLC_acc_level_4 81
Core_0_LLC_acc_level_5 1339
Core_0_LLC_acc_level_6 99
Core_0_LLC_acc_level_7 101
Core_0_LLC_acc_level_8 29
Core_0_LLC_acc_level_9 331

Core_0_major_page_fault 0
Core_0_minor_page_fault 17973

scooby_st_lookup 7455470
scooby_st_hit 5511037
scooby_st_evict 1944369
scooby_st_insert 1944433
scooby_st_streaming 0

scooby_predict_called 7455470
scooby_predict_out_of_bounds 128235
scooby_predict_action_1 5147770
scooby_predict_issue_action_1 4675818
scooby_predict_hit_action_1 471952
scooby_predict_out_of_bounds_action_1 69074
scooby_predict_action_3 489902
scooby_predict_issue_action_3 431348
scooby_predict_hit_action_3 58554
scooby_predict_out_of_bounds_action_3 10200
scooby_predict_action_4 831814
scooby_predict_issue_action_4 770422
scooby_predict_hit_action_4 61392
scooby_predict_out_of_bounds_action_4 18123
scooby_predict_action_5 264743
scooby_predict_issue_action_5 245528
scooby_predict_hit_action_5 19215
scooby_predict_out_of_bounds_action_5 4947
scooby_predict_action_10 188907
scooby_predict_issue_action_10 159068
scooby_predict_hit_action_10 29839
scooby_predict_out_of_bounds_action_10 8261
scooby_predict_action_11 124821
scooby_predict_issue_action_11 123560
scooby_predict_hit_action_11 1261
scooby_predict_out_of_bounds_action_11 5952
scooby_predict_action_12 79980
scooby_predict_issue_action_12 77096
scooby_predict_hit_action_12 2884
scooby_predict_out_of_bounds_action_12 5905
scooby_predict_action_22 2421
scooby_predict_issue_action_22 2384
scooby_predict_hit_action_22 37
scooby_predict_out_of_bounds_action_22 776
scooby_predict_action_23 1731
scooby_predict_issue_action_23 1696
scooby_predict_hit_action_23 35
scooby_predict_out_of_bounds_action_23 780
scooby_predict_action_30 1477
scooby_predict_issue_action_30 1463
scooby_predict_hit_action_30 14
scooby_predict_out_of_bounds_action_30 916
scooby_predict_action_32 1380
scooby_predict_issue_action_32 1371
scooby_predict_hit_action_32 9
scooby_predict_out_of_bounds_action_32 968
scooby_predict_action_-1 119744
scooby_predict_issue_action_-1 61105
scooby_predict_hit_action_-1 58639
scooby_predict_out_of_bounds_action_-1 978
scooby_predict_action_-3 25207
scooby_predict_issue_action_-3 17082
scooby_predict_hit_action_-3 8125
scooby_predict_out_of_bounds_action_-3 251
scooby_predict_action_-6 39894
scooby_predict_issue_action_-6 24160
scooby_predict_hit_action_-6 15734
scooby_predict_out_of_bounds_action_-6 1104
scooby_predict_action_0 7444
scooby_predict_issue_action_0 0
scooby_predict_hit_action_0 0
scooby_predict_out_of_bounds_action_0 0
scooby_predict_multi_deg_called 1394681
scooby_predict_predicted 9863998
scooby_predict_multi_deg 3271897
scooby_predict_multi_deg_2 1352787
scooby_predict_multi_deg_3 715810
scooby_predict_multi_deg_4 702426
scooby_predict_multi_deg_5 254788
scooby_predict_multi_deg_6 246086
scooby_predict_multi_deg_7 0
scooby_predict_multi_deg_8 0
scooby_predict_multi_deg_9 0
scooby_predict_multi_deg_10 0
scooby_predict_multi_deg_11 0
scooby_predict_multi_deg_12 0
scooby_predict_multi_deg_13 0
scooby_predict_multi_deg_14 0
scooby_predict_multi_deg_15 0
scooby_predict_multi_deg_16 0

scooby_selected_deg_1 5197420
scooby_selected_deg_2 622097
scooby_selected_deg_3 0
scooby_selected_deg_4 483039
scooby_selected_deg_5 0
scooby_selected_deg_6 289545
scooby_selected_deg_7 0
scooby_selected_deg_8 0
scooby_selected_deg_9 0
scooby_selected_deg_10 0
scooby_selected_deg_11 0
scooby_selected_deg_12 0
scooby_selected_deg_13 0
scooby_selected_deg_14 0
scooby_selected_deg_15 0
scooby_selected_deg_16 0

scooby_state_1001b40|45|1 5491,148,2,6,0,0,2,0,1,2,1,2,0,3584,2,9241,
scooby_state_1130b40|45|1 9116,2,103,2,1,1,0,1,1,1,1,2,1,1,3,9236,
scooby_state_feea45e0|23|0 8741,72,299,6,21,2,9,9,9,9,7,8,8,7,20,9227,
scooby_state_1007340|13|1 9207,2,1,1,0,3,1,0,2,1,0,1,1,3,0,9223,
scooby_state_7e380|14|1 8983,158,66,0,1,2,0,1,3,1,1,1,0,1,0,9218,
scooby_state_104c5c0|23|1 7049,2,165,1638,118,1,74,19,21,22,20,1,29,10,49,9218,
scooby_state_1007380|14|1 9148,0,0,58,1,1,0,0,1,4,0,1,2,0,0,9216,
scooby_state_396c0|27|1 8253,42,819,1,2,48,0,1,0,1,1,40,2,1,0,9211,
scooby_state_fef42340|13|1 9200,0,2,1,4,0,1,1,0,0,1,0,0,0,1,9211,
scooby_state_3c310|12|3 6832,152,91,29,44,6,671,29,31,32,28,1013,65,119,65,9207,
scooby_state_3c558|21|9 6554,2292,48,90,60,0,0,0,0,0,2,161,0,0,0,9207,
scooby_state_11315cc|23|1 9048,9,2,1,0,0,1,1,1,2,0,136,0,2,1,9204,
scooby_state_3c2b8|10|8 7941,785,2,93,3,1,50,0,0,1,2,0,1,324,0,9203,
scooby_state_ff3907c0|31|0 6462,901,820,0,1003,0,2,1,2,1,0,1,0,0,1,9194,
scooby_state_1131194|6|4 5,2,9166,0,0,3,1,0,2,1,2,4,2,1,0,9189,
scooby_state_1131270|9|3 3252,559,704,2382,2,1,10,35,43,29,32,6,71,1992,69,9187,
scooby_state_fef42380|14|1 4129,2447,2321,0,1,31,1,2,3,1,1,218,3,0,0,9158,
scooby_state_1130b80|46|1 8556,0,101,490,0,2,2,3,0,1,0,1,0,1,0,9157,
scooby_state_104c584|22|0 9123,2,2,0,1,3,3,1,0,3,0,0,3,2,1,9144,
scooby_state_114af80|62|0 7269,1,71,1,1533,0,245,0,3,5,5,1,1,6,1,9142,
scooby_state_104c600|24|1 7223,195,1,473,0,456,6,28,31,33,30,1,213,377,69,9136,
scooby_state_10059c0|39|1 7949,525,505,142,5,0,1,2,0,0,0,0,3,1,0,9133,
scooby_state_1006700|28|1 8416,241,5,181,2,53,83,5,7,5,2,70,3,7,45,9125,
scooby_state_399f0|39|-3 8606,97,192,27,0,80,0,2,1,0,0,1,116,2,1,9125,
scooby_state_10066ec|27|0 8938,0,0,173,1,2,1,0,2,1,1,1,0,2,3,9125,
scooby_state_eb740|29|1 6707,1,2278,1,3,1,1,1,1,1,2,118,1,1,4,9121,
scooby_state_7e240|9|1 7366,1,1670,73,0,0,0,2,1,0,1,1,2,1,3,9121,
scooby_state_46120|4|-5 9107,3,0,1,1,1,0,0,1,1,2,3,0,0,1,9121,
scooby_state_b0740|29|1 8345,3,765,0,0,1,0,1,0,0,2,0,0,4,0,9121,
scooby_state_eb6a0|26|0 6639,2466,3,0,0,2,1,1,1,1,1,2,2,0,2,9121,
scooby_state_b0700|28|1 9105,0,1,0,1,2,0,6,1,0,1,1,1,0,2,9121,
scooby_state_d14fc|19|-3 523,0,6498,2084,1,4,3,2,0,1,0,0,1,1,2,9120,
scooby_state_7e234|8|-11 8777,0,327,0,1,1,1,4,1,0,2,1,1,2,2,9120,
scooby_state_d19c0|39|1 3019,2,1,6086,3,1,0,0,0,2,0,3,1,1,1,9120,
scooby_state_3b240|9|1 8555,12,0,31,0,0,5,0,2,1,1,509,3,1,0,9120,
scooby_state_46240|9|1 7737,385,555,436,3,1,0,0,0,0,1,1,0,0,1,9120,
scooby_state_d1724|28|2 8196,140,2,3,198,218,2,2,1,1,1,336,18,2,0,9120,
scooby_state_d1648|25|2 8804,3,192,0,114,0,1,0,0,1,2,0,2,1,0,9120,
scooby_state_104b100|4|1 9075,1,2,2,4,0,30,0,2,0,0,2,0,1,1,9120,
scooby_state_1005980|38|0 9097,2,0,1,0,1,3,1,2,2,2,1,2,2,3,9119,
scooby_state_46170|7|0 4732,159,124,575,2377,236,304,46,42,42,42,115,34,157,134,9119,
scooby_state_ec15c|5|1 3435,4258,621,128,13,12,641,2,1,1,0,0,1,1,3,9117,
scooby_state_46140|5|1 9092,0,11,3,1,1,1,0,1,2,1,1,1,2,0,9117,
scooby_state_3b128|4|-5 6801,1,73,2229,1,1,1,0,2,1,1,1,2,1,2,9117,
scooby_state_113171c|28|5 1709,888,4840,1652,1,1,1,3,2,1,4,1,6,2,5,9116,
scooby_state_d1580|22|1 9013,0,2,90,0,1,0,1,2,3,0,1,1,0,1,9115,
scooby_state_3b140|5|1 1747,1,7360,0,0,0,1,1,0,0,1,2,0,1,1,9115,
scooby_state_39a80|42|1 3,2,2,4,1,2,2,2,1,1,3,2,9088,0,2,9115,
scooby_state_ec0e4|3|0 9094,2,2,1,1,1,0,2,0,0,2,1,0,3,3,9112,
scooby_state_ec100|4|1 9097,0,2,2,1,1,0,2,1,0,1,1,0,1,3,9112,
scooby_state_3b0c0|3|1 9092,3,1,3,2,2,1,1,1,1,2,0,1,1,1,9112,
scooby_state_3b220|8|5 9094,2,1,0,2,3,1,1,1,0,0,0,1,5,0,9111,
scooby_state_df600|24|1 4691,196,3868,1,2,105,201,1,2,0,3,33,0,2,2,9107,
scooby_state_b0780|30|1 2201,4,40,0,1,1,0,0,1,0,0,6853,4,0,1,9106,
scooby_state_e6b74|45|7 5558,752,1812,23,717,3,13,8,12,12,10,2,34,119,30,9105,
scooby_state_df824|32|8 9079,2,1,0,4,2,3,3,2,2,2,0,2,0,3,9105,
scooby_state_d1600|24|-1 146,109,8805,11,25,2,0,0,0,0,0,3,2,0,2,9105,
scooby_state_e5210|8|0 5000,0,14,0,8,3944,109,2,0,3,0,23,1,0,1,9105,
scooby_state_10019c0|39|1 7296,1707,0,70,1,1,0,1,0,2,3,0,2,19,3,9105,
scooby_state_39580|22|1 8502,77,491,0,18,1,1,0,1,1,1,0,0,1,3,9097,
scooby_state_d1500|20|1 6795,1,2273,1,0,2,1,3,1,1,0,10,2,0,1,9091,
scooby_state_d15c0|23|3 2715,1,1,6134,221,2,0,2,1,1,1,2,4,2,4,9091,
scooby_state_10075c0|23|1 5,8034,204,647,1,76,0,16,16,19,15,26,1,2,24,9086,
scooby_state_10076a4|26|3 7904,500,1,120,0,1,91,0,0,1,1,453,1,3,1,9077,
scooby_state_1149f80|62|1 6145,414,174,200,137,85,15,34,32,33,33,918,77,99,670,9066,
scooby_state_dfa90|42|9 6688,223,1223,66,621,1,5,15,5,6,6,170,6,9,17,9061,
scooby_state_1296128|4|0 4526,2,4265,0,254,5,1,1,1,2,1,1,0,0,1,9060,
scooby_state_e97c0|31|1 8957,2,11,0,0,75,1,0,1,0,2,5,2,3,0,9059,
scooby_state_e9790|30|0 7525,1202,1,301,0,21,0,1,0,3,1,1,2,1,0,9059,
scooby_state_fb800|32|1 7227,2,160,129,91,2,0,0,2,0,1,1,3,1440,1,9059,
scooby_state_fb7c0|31|1 8469,169,2,1,242,94,1,2,2,0,0,72,1,2,2,9059,
scooby_state_fb5c0|23|1 9045,2,1,1,1,1,2,2,1,1,0,1,0,1,0,9059,
scooby_state_fb72c|28|3 9041,2,2,1,0,1,2,0,1,2,1,2,0,0,2,9057,
scooby_state_1131280|10|1 4973,86,3969,1,1,1,2,5,2,0,3,8,0,3,1,9055,
scooby_state_eb700|28|1 8789,1,1,251,0,0,0,0,1,2,2,1,0,3,3,9054,
scooby_state_7e4e0|19|-1 2500,1143,213,5039,1,151,0,0,1,2,1,0,1,1,1,9054,
scooby_state_eb6c0|27|1 8954,71,1,15,3,0,2,0,1,4,0,0,1,0,1,9053,
scooby_state_d1b40|45|1 9032,1,1,2,1,3,0,1,1,1,3,2,2,1,2,9053,
scooby_state_d1a00|40|1 4371,2,879,3752,0,12,2,1,0,1,0,26,2,2,2,9052,
scooby_state_df5f8|23|0 9043,1,0,0,0,0,0,1,0,0,1,0,1,2,2,9051,
scooby_state_de388|14|2 7297,223,1514,7,2,1,0,2,0,0,2,2,0,1,0,9051,
scooby_state_fb600|24|1 741,1,8290,4,1,2,2,1,1,1,1,1,1,0,2,9049,
scooby_state_b0800|32|1 9017,0,3,1,4,14,1,4,1,0,1,1,1,1,0,9049,
scooby_state_fb640|25|1 9039,1,1,0,0,1,1,0,1,0,0,1,0,2,0,9047,
scooby_state_fb680|26|-2 9031,1,2,0,0,3,1,1,2,0,2,0,0,1,3,9047,
scooby_state_b06e8|27|0 582,1,8455,1,1,1,1,0,0,2,1,0,0,2,0,9047,
scooby_state_fbf78|61|32 9037,1,0,0,1,0,0,1,0,0,0,1,1,2,1,9045,
scooby_state_1001340|13|1 2269,280,5391,880,165,0,2,0,3,0,1,1,53,0,0,9045,
scooby_state_fb780|30|-32 8581,1,452,0,0,1,0,0,3,1,3,1,0,0,1,9044,
scooby_state_fbf80|62|1 9032,2,0,1,0,1,0,1,1,2,0,2,0,1,1,9044,
scooby_state_d1b00|44|16 9024,0,2,3,2,0,1,2,1,1,3,1,1,1,1,9043,
scooby_state_d0380|14|1 9024,2,2,0,3,1,4,3,1,0,1,0,0,1,1,9043,
scooby_state_d0340|13|1 8170,2,52,262,4,0,453,0,0,2,0,0,2,95,1,9043,
scooby_state_df84c|33|1 3313,1272,1,31,25,4061,23,24,24,25,14,11,6,158,54,9042,
scooby_state_7baecf78|61|0 9032,1,0,1,0,0,0,0,2,1,1,0,1,1,2,9042,
scooby_state_d0338|12|0 9025,1,2,2,3,2,0,2,1,1,2,0,0,1,0,9042,
scooby_state_7baeeb24|44|5 9030,1,2,2,1,0,1,1,1,1,0,0,1,1,0,9042,
scooby_state_11a03b4|14|0 8999,0,33,0,0,0,2,0,1,0,1,1,2,1,2,9042,
scooby_state_109aaa8|42|0 6300,307,2257,27,37,106,0,0,1,1,1,1,1,0,3,9042,
scooby_state_10010c0|3|1 2205,46,6695,2,89,1,0,1,0,1,1,1,0,0,0,9042,
scooby_state_fb74c|29|2 9023,1,1,1,1,3,2,1,1,1,1,1,1,2,2,9042,
scooby_state_7baee6e8|27|0 9033,0,0,1,1,0,1,1,0,1,1,2,1,0,0,9042,
scooby_state_7be4bb40|45|1 1981,2667,3939,65,1,246,0,11,11,8,6,0,26,0,80,9041,
scooby_state_1114290|10|1 8118,1,0,5,10,196,1,3,1,1,3,698,2,2,0,9041,
scooby_state_7baeeb40|45|1 9027,0,1,0,0,1,1,0,5,0,0,3,0,1,2,9041,
scooby_state_7be456c0|27|1 2872,5633,153,0,4,0,1,1,2,0,0,373,0,1,1,9041,
scooby_state_104b150|5|1 8534,28,115,2,356,1,4,0,0,0,1,0,0,0,0,9041,
scooby_state_11a031c|12|2 8254,0,781,1,2,0,0,0,0,0,0,2,0,0,1,9041,
scooby_state_11a0348|13|1 6692,220,2,9,2,2,2,4,4,1,1,1,2095,1,5,9041,
scooby_state_7be4c338|12|2 8424,2,604,2,1,0,2,1,0,0,0,2,1,1,1,9041,
scooby_state_7be47b50|45|0 6935,1365,43,15,54,1,2,26,25,24,26,0,149,273,103,9041,
scooby_state_7baedb04|44|2 7412,1,4,1610,2,2,4,0,1,0,1,1,1,1,0,9040,
scooby_state_11a3000|0|0 8605,3,1,1,1,0,414,2,1,0,2,2,2,6,0,9040,
scooby_state_11a0280|10|1 2486,6046,299,51,0,2,150,0,2,0,0,2,1,0,1,9040,
scooby_state_7b7d8568|21|0 213,8679,134,2,0,2,2,0,0,1,2,1,2,1,1,9040,
scooby_state_7ba7ba88|42|0 6006,5,2872,107,42,1,0,1,0,0,0,2,2,0,2,9040,
scooby_state_10024e0|19|0 7135,35,1581,110,6,114,1,8,9,11,8,0,5,1,16,9040,
scooby_state_1007580|22|1 9021,0,2,0,0,1,2,0,3,3,1,2,2,1,2,9040,
scooby_state_7be41034|0|0 8993,0,0,29,9,2,1,1,1,2,1,0,1,0,0,9040,
scooby_state_1296364|13|3 5748,99,2903,120,49,6,1,0,2,1,1,6,2,99,3,9040,
scooby_state_7baee340|13|1 14,1,4,3,2,9012,0,0,0,1,0,1,0,1,1,9040,
scooby_state_1296280|10|1 8230,0,1,746,7,0,2,1,0,4,1,30,1,16,1,9040,
scooby_state_122334|12|-1 2103,151,2983,3719,20,52,2,0,3,1,0,2,0,2,2,9040,
scooby_state_7be4c008|0|0 259,1,0,4,3,1,8759,1,2,2,2,1,1,1,3,9040,
scooby_state_7be4c08c|2|2 6025,2,13,2,2987,2,1,1,1,0,1,0,2,0,2,9039,
scooby_state_7be4bf80|62|1 8861,1,166,1,1,2,1,1,0,0,0,2,1,1,1,9039,
scooby_state_7baed5a0|22|1 3586,1,1,0,5445,1,1,0,1,1,1,0,0,1,0,9039,
scooby_state_7baed9c0|39|1 7764,1,2,1,0,0,1,0,1,1,0,338,1,927,2,9039,
scooby_state_7ba5a384|14|5 8099,265,638,0,1,3,1,1,4,2,2,19,0,2,2,9039,
scooby_state_11be08c|2|0 683,2,8345,2,2,0,0,1,2,0,0,0,0,2,0,9039,
scooby_state_7baed68c|26|1 117,0,0,6025,2886,1,0,3,1,0,0,2,1,1,2,9039,
scooby_state_7be45680|26|1 9023,0,0,2,2,1,3,0,1,3,4,0,0,0,0,9039,
scooby_state_7baed5c0|23|1 9023,2,1,4,0,1,1,1,0,1,1,1,2,1,0,9039,
scooby_state_7be40f88|62|1 8894,0,96,1,1,2,26,1,1,1,1,1,2,12,0,9039,
scooby_state_46180|6|1 8966,0,58,2,1,1,0,2,1,1,1,2,2,0,1,9038,
scooby_state_7b7d5994|38|0 898,8101,0,3,4,22,0,2,0,1,0,2,1,2,2,9038,
scooby_state_7b7d86f8|27|1 449,4243,4332,2,1,2,0,0,1,0,1,2,1,0,4,9038,
scooby_state_7b7d8580|22|1 9021,2,3,1,0,3,1,0,1,1,2,2,1,0,0,9038,
scooby_state_7b7d85c0|23|1 1202,1,7825,0,0,0,1,1,2,0,2,0,2,2,0,9038,
scooby_state_1298b40|45|1 8999,1,0,27,1,1,2,0,1,1,3,0,0,1,0,9037,
scooby_state_7b7d59e8|39|1 9023,2,2,0,2,0,1,0,1,2,2,0,0,2,0,9037,
scooby_state_de2b0|10|0 31,7,8986,1,0,1,3,0,2,0,1,0,2,1,2,9037,
scooby_state_7be40f58|61|0 6494,2067,230,39,6,1,2,11,11,14,14,7,11,69,61,9037,
scooby_state_1113bbc|46|0 9018,0,2,1,3,2,2,0,1,1,3,0,1,2,0,9036,
scooby_state_507b8|30|0 8940,35,49,1,2,0,1,0,0,1,2,1,3,1,0,9036,
scooby_state_56580|22|1 9019,2,2,2,1,0,0,2,5,1,1,1,0,0,0,9036,
scooby_state_1113bc0|47|1 8570,0,455,0,0,0,2,0,0,0,1,5,2,0,1,9036,
scooby_state_e3800|32|0 8750,3,1,270,2,0,0,1,0,2,1,3,2,0,1,9036,
scooby_state_507c0|31|1 6860,147,1834,179,0,5,2,2,0,2,1,1,2,0,1,9036,
scooby_state_e3580|22|1 9022,4,2,1,2,0,0,1,2,0,0,2,0,0,0,9036,
scooby_state_56540|21|1 9021,2,5,1,0,0,0,1,1,0,1,0,1,0,2,9035,
scooby_state_7be4c288|10|2 4,2874,0,0,0,6146,1,2,1,1,2,2,1,0,1,9035,
scooby_state_11a024c|9|1 4290,4733,0,2,1,1,0,0,0,1,1,1,1,2,2,9035,
scooby_state_1297b88|30|0 3050,3533,2250,0,3,75,0,15,3,0,1,100,2,2,1,9035,
scooby_state_7baed000|0|0 9,2,9013,0,0,1,2,1,2,3,0,1,0,0,1,9035,
scooby_state_fb594|22|0 9021,0,0,1,0,0,2,0,3,1,2,1,1,2,1,9035,
scooby_state_ea4cc|19|0 9008,1,2,1,1,2,6,2,0,1,2,2,1,2,4,9035,
scooby_state_49740|29|1 9016,0,0,2,1,0,3,2,2,1,1,0,3,0,3,9034,
scooby_state_e3880|34|1 8952,0,0,2,65,1,1,2,0,0,1,0,7,1,2,9034,
scooby_state_fb6c0|27|1 7062,1,0,1963,1,3,0,1,0,0,2,1,0,0,0,9034,
scooby_state_7be4c340|13|1 6372,5,1394,100,19,1,1,2,2,1,0,1134,2,1,0,9034,
scooby_state_7baee9c8|39|5 8782,193,1,2,43,1,0,2,2,1,2,1,1,3,0,9034,
scooby_state_7baed0c0|3|1 4833,411,296,3,22,3,3409,1,0,2,0,1,1,51,1,9034,
scooby_state_fef4d880|34|1 7514,208,2,1244,0,3,1,2,2,1,1,54,0,2,0,9034,
scooby_state_7baecf80|62|1 8848,1,168,0,3,3,1,1,2,2,0,0,1,0,4,9034,
scooby_state_7baed084|2|2 4182,4839,0,0,1,0,2,2,0,1,0,3,2,0,2,9034,
scooby_state_7baee740|29|1 3024,0,1,4,4241,1699,0,2,4,1,5,1,48,4,0,9034,
scooby_state_7baed620|24|1 8921,0,104,0,0,1,0,2,0,0,0,1,2,1,2,9034,
scooby_state_7be44140|5|1 8964,56,2,0,5,0,1,1,3,1,0,1,0,0,0,9034,
scooby_state_53768|29|0 8982,3,3,16,0,0,1,2,2,0,0,22,2,0,1,9034,
scooby_state_7be4576c|29|2 8996,3,1,1,1,16,4,3,0,2,2,2,2,0,1,9034,
scooby_state_53844|33|1 5691,81,1,1,7,3,3,1,2,3,1,3174,17,46,3,9034,
scooby_state_7be4c4c4|19|6 9008,0,3,2,2,3,2,1,3,0,1,6,2,0,1,9034,
scooby_state_7baed134|4|1 9019,1,0,1,0,0,0,0,4,0,1,3,2,2,1,9034,
scooby_state_90100|4|1 9012,2,2,1,0,1,2,2,0,1,1,3,1,5,1,9034,
scooby_state_ff36c8a8|34|0 8505,1,268,6,201,1,0,8,8,7,7,1,3,0,18,9034,
scooby_state_e1380|14|1 8696,76,63,172,0,1,1,1,4,0,2,1,4,10,3,9034,
scooby_state_7baee898|34|5 1,1,4,2,9020,2,0,0,0,1,1,0,2,0,0,9034,
scooby_state_11be0c0|3|1 4886,1,4128,2,1,1,4,0,1,0,2,4,0,0,4,9034,
scooby_state_fef4d864|33|0 6983,0,1891,153,0,2,1,1,0,0,0,2,0,0,1,9034,
scooby_state_7baed640|25|1 7485,46,0,1,1,1491,1,2,0,0,1,2,1,0,3,9034,
scooby_state_7be440cc|3|0 9017,2,2,0,1,2,3,1,0,2,1,0,1,1,1,9034,
scooby_state_900d4|3|1 9007,1,1,5,1,1,2,2,1,2,0,4,1,3,3,9034,
scooby_state_7be4c224|8|6 153,1,5389,3416,67,0,0,4,0,0,1,1,0,0,2,9034,
scooby_state_11be100|4|1 9011,3,3,1,1,2,1,1,1,2,0,2,1,2,3,9034,
scooby_state_49880|34|1 4071,543,1349,4,3021,12,3,1,2,2,2,1,3,20,0,9034,
scooby_state_feead54c|21|0 8851,24,1,45,106,1,2,2,0,0,0,1,0,0,1,9034,
scooby_state_7be44180|6|1 3155,5502,0,0,369,0,0,1,1,1,2,0,1,0,1,9033,
scooby_state_11a03c0|15|1 9014,2,9,0,0,0,2,2,1,0,0,2,1,0,0,9033,
scooby_state_7bae3bf0|47|0 9022,2,1,0,0,1,1,2,0,1,0,1,0,2,0,9033,
scooby_state_e0a80|42|1 2246,1,6445,335,1,0,0,0,1,0,0,2,2,0,0,9033,
scooby_state_e3618|24|1 8827,192,0,2,0,3,0,0,2,1,2,2,1,1,0,9033,
scooby_state_d2a20|40|1 8770,0,246,1,0,1,0,4,2,8,0,0,1,0,0,9033,
scooby_state_7be4c580|22|1 825,2,2,3,4,51,2,3,5,4,5,8066,4,44,13,9033,
scooby_state_90140|5|1 8507,1,1,282,1,18,1,2,1,3,2,208,1,2,3,9033,
scooby_state_56640|25|1 8325,0,6,665,2,0,0,7,5,5,5,0,1,0,12,9033,
scooby_state_7be44100|4|1 4326,4649,41,3,1,0,1,3,0,1,2,2,2,1,1,9033,
scooby_state_feec0b70|45|1 8962,2,57,1,2,1,1,1,2,0,1,2,0,1,0,9033,
scooby_state_7be4c504|20|1 8538,157,328,5,0,1,2,0,0,1,0,1,0,0,0,9033,
scooby_state_56600|24|1 5942,2649,1,407,1,1,16,0,4,2,1,2,3,1,3,9033,
scooby_state_11be140|5|1 8732,2,285,1,2,1,0,1,1,1,0,2,1,1,2,9032,
scooby_state_7baed880|34|1 229,0,8800,0,0,0,0,0,0,1,1,0,0,1,0,9032,
scooby_state_7baed2b8|10|5 555,2,1,1,2,2,8456,0,1,1,0,1,6,0,4,9032,
scooby_state_feec0b80|46|1 8963,57,0,2,1,1,1,0,1,2,1,0,0,0,3,9032,
scooby_state_7baee140|5|1 1676,8,2174,5165,1,0,3,0,0,1,1,1,1,1,0,9032,
scooby_state_7baee700|28|1 3667,92,1,24,1,5143,31,0,2,1,1,1,65,1,2,9032,
scooby_state_7be407c4|31|1 6870,582,851,176,192,2,333,2,3,1,0,18,1,1,0,9032,
scooby_state_1297b80|46|5 8788,2,230,1,1,1,2,0,1,0,1,3,1,1,0,9032,
scooby_state_7ba5a240|9|1 3607,342,979,2,0,0,4099,0,0,0,0,2,0,0,1,9032,
scooby_state_1297b04|44|-2 8994,1,2,21,0,3,1,3,1,0,0,2,1,1,2,9032,
scooby_state_7baee0c0|3|1 8830,2,2,5,1,1,2,8,11,10,8,111,8,8,25,9032,
scooby_state_feead580|22|1 7868,2,851,3,4,61,4,5,3,5,2,170,3,45,6,9032,
scooby_state_e1130|4|1 8784,0,19,31,2,3,3,0,2,0,4,180,1,2,1,9032,
scooby_state_7baedfa8|62|1 8754,252,3,1,2,18,0,2,0,0,0,0,0,0,0,9032,
scooby_state_ea648|25|1 7698,1166,34,1,124,2,2,1,1,1,0,0,0,1,1,9032,
scooby_state_7ba5a238|8|0 8937,1,8,2,76,0,0,1,0,1,1,0,0,2,3,9032,
scooby_state_1296240|9|1 8998,1,0,2,3,19,0,1,1,1,1,2,2,1,0,9032,
scooby_state_7baee290|10|5 8846,3,146,0,1,6,1,3,0,1,1,21,2,1,0,9032,
scooby_state_7baee100|4|1 6054,3,1422,1418,1,0,45,1,2,4,1,3,4,66,8,9032,
scooby_state_7baed840|33|1 9012,0,4,1,4,2,2,3,1,0,1,0,2,0,0,9032,
scooby_state_11be180|6|1 8494,278,3,1,7,49,153,33,0,1,2,3,2,2,4,9032,
scooby_state_1012084|2|0 15,2,0,2,1,8995,2,3,1,4,1,4,2,0,0,9032,
scooby_state_7b7d8608|24|1 4,1,9014,1,1,2,1,0,2,0,0,1,0,3,1,9031,
scooby_state_7baee4c0|19|1 6222,4,1887,52,797,1,1,2,1,1,1,60,0,0,2,9031,
scooby_state_7baeda80|42|1 7922,79,3,3,1,64,3,4,2,4,0,660,284,1,1,9031,
scooby_state_7baed504|20|1 9016,1,1,5,0,0,1,2,0,0,0,0,2,1,2,9031,
scooby_state_7baed740|29|3 1149,1,7860,5,2,1,0,2,5,1,2,2,1,0,0,9031,
scooby_state_7baed140|5|1 4,0,0,1,9020,3,1,0,0,0,0,2,0,0,0,9031,
scooby_state_7baeda5c|41|2 9015,1,2,2,2,1,1,1,1,1,0,2,0,0,2,9031,
scooby_state_7baed3c0|15|1 1936,1,0,7080,2,1,2,2,0,1,1,0,0,1,4,9031,
scooby_state_7baed540|21|1 3566,1,3,2,2,5014,0,1,2,1,1,1,39,398,0,9031,
scooby_state_1297bcc|47|3 1342,2,1,0,0,0,7635,0,1,1,2,2,41,3,1,9031,
scooby_state_e0880|34|1 422,0,3,1,8595,2,0,0,2,0,2,1,1,0,2,9031,
scooby_state_7b7d8700|28|1 9013,2,3,0,2,1,1,2,1,1,2,0,1,1,1,9031,
scooby_state_7be45bf0|47|0 8929,2,0,0,87,1,2,0,0,2,2,2,1,2,1,9031,
scooby_state_feec0bc0|47|1 6999,1,1782,0,3,98,57,2,2,1,1,1,4,80,0,9031,
scooby_state_e09c0|39|1 469,1,0,8448,106,0,1,1,2,0,0,1,0,1,0,9030,
scooby_state_7be4c540|21|1 8988,1,27,2,1,1,2,0,1,1,0,2,1,2,1,9030,
scooby_state_7b7d86a4|26|2 3078,0,2,5937,0,1,1,0,0,1,3,2,2,2,1,9030,
scooby_state_1297a40|41|1 1793,1,0,7226,1,1,1,2,0,0,0,1,1,3,0,9030,
scooby_state_7b7d5a80|42|1 5616,393,484,2052,265,3,4,8,9,9,7,67,32,12,69,9030,
scooby_state_5099c|38|7 8400,41,574,1,0,1,3,0,1,0,3,1,3,1,0,9029,
scooby_state_b07cc|31|1 9017,0,0,0,0,0,2,0,0,5,0,1,1,0,3,9029,
scooby_state_7baed7c0|31|1 4322,4692,1,1,2,0,1,0,1,0,1,1,3,0,4,9029,
scooby_state_113f660|25|0 8249,1,762,2,3,2,1,1,2,1,1,0,1,1,1,9028,
scooby_state_1072e98|43|0 5881,0,2,1,2924,50,146,2,3,1,0,17,0,1,0,9028,
scooby_state_e0b58|45|1 8905,1,110,1,1,2,3,0,0,1,2,1,0,0,0,9027,
scooby_state_56680|26|1 9006,3,0,1,1,3,1,0,2,1,0,1,2,5,1,9027,
scooby_state_12234c|13|-17 6189,1738,840,3,0,134,3,41,3,3,2,0,0,62,8,9026,
scooby_state_7b7d5a4c|41|1 9010,1,1,3,1,0,2,1,2,1,0,1,2,0,1,9026,
scooby_state_7b7d5a00|40|1 9005,1,3,0,3,3,2,2,1,0,1,1,2,1,1,9026,
scooby_state_e0a40|41|1 9007,1,0,0,0,1,0,3,1,3,0,2,4,0,3,9025,
scooby_state_53834|32|1 9009,2,0,1,1,2,3,1,0,2,1,1,0,1,1,9025,
scooby_state_7baecfc0|63|1 5500,1290,357,200,19,80,7,13,13,11,12,1317,16,17,173,9025,
scooby_state_e0a00|40|1 4818,4196,1,0,0,1,4,1,1,2,1,0,0,0,0,9025,
scooby_state_7be4bfd8|63|1 8721,9,273,14,2,0,0,1,0,2,1,0,0,1,1,9025,
scooby_state_1001180|6|-33 8506,1,1,504,1,1,1,2,0,1,1,0,0,4,2,9025,
scooby_state_7be4bb04|44|-19 9007,5,1,3,1,0,1,0,3,0,1,0,1,2,0,9025,
scooby_state_11a2fec|63|0 8320,411,26,74,4,109,56,2,3,3,2,2,0,0,13,9025,
scooby_state_e10a0|2|-16 122,1,8888,3,2,1,0,1,0,3,2,0,1,0,0,9024,
scooby_state_7e50c|20|6 832,76,5,101,1,1,0,4,1,1,0,7992,2,6,2,9024,
scooby_state_e10c0|3|1 9010,0,1,2,1,1,0,1,0,1,1,2,1,1,2,9024,
scooby_state_7baed800|32|1 9010,0,2,1,1,0,1,3,0,1,0,1,1,0,2,9023,
scooby_state_7be45780|30|1 9,1017,3,212,2,7675,1,2,1,2,2,12,3,80,2,9023,
scooby_state_53780|30|1 9005,4,1,3,2,2,0,1,0,1,1,0,1,0,2,9023,
scooby_state_49878|33|3 9002,0,1,3,0,1,2,1,2,0,2,3,2,2,2,9023,
scooby_state_7be45800|32|1 6163,642,2080,123,2,0,2,0,1,3,1,2,1,1,2,9023,
scooby_state_d27c0|31|0 3145,567,0,8,36,99,4969,20,18,18,21,13,12,20,77,9023,
scooby_state_537c0|31|1 9004,0,1,2,1,1,2,0,2,0,2,1,4,3,0,9023,
scooby_state_497a0|30|1 478,1,8523,3,2,0,1,1,2,1,2,2,2,2,3,9023,
scooby_state_39a54|41|14 4604,3811,1,6,180,0,1,18,11,10,10,273,42,21,34,9022,
scooby_state_113f698|26|1 8306,680,0,1,0,2,0,2,4,3,2,2,12,1,6,9021,
scooby_state_7baed78c|30|1 1,9004,4,1,1,0,0,0,1,1,0,1,1,2,4,9021,
scooby_state_e380c|30|0 8530,465,2,1,9,1,2,1,1,2,0,2,1,4,0,9021,
scooby_state_113f6dc|27|1 16,1,1,7456,123,2,2,3,7,6,4,1306,8,5,81,9021,
scooby_state_fbfdc|63|31 5192,1307,387,136,3,1,1733,3,8,9,6,2,190,12,31,9020,
scooby_state_e0fc0|63|1 8765,1,16,163,11,1,1,1,0,1,0,0,60,0,0,9020,
scooby_state_fc000|0|0 8506,6,3,0,1,379,39,1,1,2,1,78,1,1,1,9020,
scooby_state_7baee2e8|7|0 6972,509,1198,186,3,1,1,4,6,6,8,1,2,90,32,9019,
scooby_state_d03c0|15|1 3793,133,1076,2,193,49,37,6,4,4,6,3693,9,6,8,9019,
scooby_state_7be40788|30|0 9001,1,0,2,0,1,3,2,2,1,0,1,2,0,3,9019,
scooby_state_1298b80|46|1 8890,1,0,1,106,2,2,2,1,1,0,2,2,2,4,9016,
scooby_state_1298bc8|47|1 4024,539,24,61,1,46,1,0,0,2,0,4311,2,3,0,9014,
scooby_state_11be1c0|7|1 8969,5,5,2,15,1,3,1,2,3,0,0,2,3,2,9013,
scooby_state_10730c0|3|0 8961,2,31,0,0,0,1,0,3,3,1,4,2,3,0,9011,
scooby_state_56300|12|-3 9000,2,1,0,0,0,0,0,0,1,0,1,1,1,3,9010,
scooby_state_1073168|5|2 5729,117,2933,0,56,118,42,3,1,2,1,0,2,2,1,9007,
scooby_state_111422c|8|0 8881,98,8,1,1,3,2,2,1,3,1,0,3,1,1,9006,
scooby_state_1114240|9|1 8687,157,139,4,2,2,3,3,2,2,2,2,0,1,0,9006,
scooby_state_102224c|9|0 8080,110,118,646,39,0,2,1,0,2,0,0,0,1,2,9001,
scooby_state_1149e44|57|0 8878,41,0,0,73,0,2,0,0,1,0,3,2,0,0,9000,
scooby_state_1007574|21|0 7009,0,2,1987,0,1,0,0,1,0,0,0,0,0,0,9000,
scooby_state_1073180|6|1 7125,9,72,1031,259,113,0,36,33,31,31,3,20,172,62,8997,
scooby_state_d1010|0|-24 5197,2346,2,881,390,167,1,2,2,0,2,1,2,0,1,8994,
scooby_state_7be457c0|31|0 8979,1,1,1,0,1,2,1,1,1,1,2,1,0,2,8994,
scooby_state_90088|7|0 962,1152,5803,785,12,7,2,15,18,16,18,138,6,14,34,8982,
scooby_state_10014c0|19|1 3051,3,5057,741,106,0,3,0,1,4,3,0,1,3,3,8976,
scooby_state_e35c0|23|1 5050,3819,83,0,0,0,3,2,2,0,1,1,3,2,1,8967,
scooby_state_7baed8d0|24|0 8860,22,0,72,5,0,0,2,0,2,1,0,1,0,2,8967,
scooby_state_1007540|21|1 8850,1,2,1,1,99,0,2,3,3,1,1,0,1,0,8965,
scooby_state_7baee360|30|6 8748,1,5,2,39,0,1,2,3,4,1,138,1,0,12,8957,
scooby_state_11313c0|15|0 8939,0,4,1,2,2,1,0,0,0,2,0,2,0,2,8955,
scooby_state_49a48|41|7 7049,1867,21,2,1,0,1,0,2,1,1,1,0,0,1,8947,
scooby_state_cea28|40|0 8258,9,0,591,0,1,2,1,1,3,2,7,1,68,1,8945,
scooby_state_104b180|6|1 7803,0,518,68,2,2,175,1,2,0,3,370,0,1,0,8945,
scooby_state_cea40|41|1 6038,825,2039,18,4,0,2,3,1,1,3,1,0,2,7,8944,
scooby_state_7be4578c|24|0 3006,4,3215,2512,56,9,5,14,14,15,15,18,15,13,30,8941,
scooby_state_1001300|12|-7 8917,1,2,1,0,0,5,1,2,2,1,0,1,1,2,8936,
scooby_state_10004c0|19|1 8920,0,1,2,2,0,3,1,1,1,1,0,3,0,0,8935,
scooby_state_113108c|2|-26 3171,70,5678,0,1,1,0,3,0,1,1,5,1,0,1,8933,
scooby_state_ff35a97c|37|0 8787,1,1,1,128,1,2,1,1,3,2,0,2,0,2,8932,
scooby_state_ff35a980|38|1 7762,1134,1,1,18,2,1,2,2,0,1,1,6,1,0,8932,
scooby_state_1297970|37|0 118,1,8802,0,0,1,2,2,1,1,0,2,0,1,1,8932,
scooby_state_1002100|4|-15 7707,878,327,1,1,0,3,0,2,0,1,3,1,4,1,8929,
scooby_state_1297a34|40|3 3013,11,2,5897,0,3,0,1,0,0,0,0,0,0,1,8928,
scooby_state_7baed980|38|1 8906,2,2,0,3,0,1,1,2,0,0,0,0,1,3,8921,
scooby_state_114b000|0|0 7267,1609,1,0,0,0,3,5,2,2,0,14,1,16,1,8921,
scooby_state_1000480|18|0 8846,1,46,2,1,1,2,2,4,1,1,2,0,3,2,8914,
scooby_state_12982b4|10|0 57,2,8830,0,0,0,1,4,2,0,0,0,2,1,0,8899,
scooby_state_104c6c0|27|1 8502,14,0,13,351,0,0,0,3,0,2,2,0,1,2,8890,
scooby_state_1001880|34|31 4717,95,3662,0,273,3,65,3,6,3,4,3,4,38,10,8886,
scooby_state_fef4727c|9|0 8841,0,24,1,2,2,0,1,0,2,1,1,2,3,4,8884,
scooby_state_10073c0|15|1 8280,7,585,0,0,1,0,1,1,2,1,0,1,0,0,8879,
scooby_state_11c3484|18|0 7673,963,75,60,2,1,2,5,7,5,4,2,3,61,12,8875,
scooby_state_101eb84|46|1 8738,0,3,112,1,3,0,1,0,1,3,2,0,0,1,8865,
scooby_state_d1b84|46|1 8824,1,2,21,0,1,1,4,0,1,1,1,0,0,1,8858,
scooby_state_1009fc0|63|1 8796,2,2,23,9,1,2,3,1,1,2,9,1,3,3,8858,
scooby_state_1009f8c|62|1 8766,76,0,5,0,3,0,1,2,3,1,0,0,0,1,8858,
scooby_state_11c49c0|39|1 6946,1,1798,1,63,39,2,2,0,0,1,1,1,1,0,8856,
scooby_state_13d9640|25|0 106,9,8719,0,2,2,1,1,2,2,1,0,2,3,1,8851,
scooby_state_13d6380|14|1 8834,1,1,1,3,0,2,1,1,0,1,2,2,0,2,8851,
scooby_state_e3858|33|2 8836,1,4,0,0,0,1,0,1,1,1,1,3,1,0,8850,
scooby_state_7b7d87c0|31|1 8833,0,0,2,1,1,1,1,0,0,1,1,4,3,2,8850,
scooby_state_13d6500|20|0 4651,1,4180,2,1,2,0,2,4,1,1,2,1,1,0,8849,
scooby_state_13d97c0|31|1 8838,0,2,0,0,1,0,1,0,1,1,1,0,4,0,8849,
scooby_state_1050240|9|1 7621,40,1,1115,1,15,1,4,2,1,2,12,1,28,3,8847,
scooby_state_1050234|8|0 7427,0,316,840,88,169,0,0,3,1,0,0,2,1,0,8847,
scooby_state_13d6340|13|1 5463,48,502,0,0,191,2539,0,0,1,1,1,1,97,2,8846,
scooby_state_13d6330|12|-13 8827,2,1,3,3,0,1,1,2,1,1,2,1,0,1,8846,
scooby_state_13d661c|24|1 8835,0,0,2,0,1,0,1,0,0,1,1,1,2,1,8845,
scooby_state_13d6640|25|1 4399,933,1921,1264,118,107,0,1,2,3,4,75,3,3,12,8845,
scooby_state_13d9804|32|1 8827,3,0,2,0,0,0,2,1,1,0,2,1,1,5,8845,
scooby_state_396bc|26|-11 8827,2,0,0,3,1,1,2,1,2,1,0,1,1,1,8843,
scooby_state_1050234|7|0 7430,2,307,822,94,170,1,2,3,4,1,2,1,1,3,8843,
scooby_state_13d9700|28|1 500,3034,5295,1,1,1,0,1,1,1,0,0,1,4,3,8843,
scooby_state_13d9840|33|1 8763,1,67,0,1,0,0,3,0,0,0,3,1,2,2,8843,
scooby_state_13d96c0|27|1 1977,2,2968,3881,2,0,0,2,2,3,1,1,1,2,1,8843,
scooby_state_13d65d0|23|2 8766,0,0,41,0,1,28,0,2,2,1,0,1,0,1,8843,
scooby_state_13d9880|34|1 4836,1672,1025,214,1,15,1,0,2,4,1,1064,0,4,3,8842,
scooby_state_7b7dd538|20|0 7329,26,1078,362,0,36,2,2,1,1,0,1,2,2,0,8842,
scooby_state_7b7d8800|32|1 6750,1205,869,1,2,9,3,0,0,3,0,0,0,0,0,8842,
scooby_state_13d9a80|42|1 8688,38,53,50,1,2,2,2,0,1,2,1,0,2,0,8842,
scooby_state_13d9740|29|1 8819,2,2,1,1,1,1,3,3,2,3,1,1,0,2,8842,
scooby_state_1010840|33|1 6505,1947,293,1,1,84,2,3,0,2,1,0,0,2,1,8842,
scooby_state_13d9798|30|1 8822,1,1,0,1,1,1,0,1,2,1,3,1,6,0,8841,
scooby_state_7b7d8880|34|1 573,13,3545,2,0,31,1012,1,0,1,2,3529,3,123,6,8841,
scooby_state_13d9680|26|1 778,8040,0,0,1,3,3,3,0,4,2,2,2,2,1,8841,
scooby_state_13d9a4c|41|7 8286,60,357,124,1,2,1,4,1,0,2,1,1,1,0,8841,
scooby_state_56340|13|1 8717,2,87,3,2,4,0,2,0,1,0,0,0,21,0,8839,
scooby_state_7b7d8840|33|1 8617,211,0,1,1,0,1,0,2,0,1,1,1,1,2,8839,
scooby_state_13d63c0|15|1 1672,161,589,92,6089,1,9,24,23,23,22,55,18,8,50,8836,
scooby_state_90080|2|0 8817,1,0,3,1,0,1,4,0,2,2,3,0,1,1,8836,
scooby_state_7b7d8be0|47|13 8826,0,1,0,0,1,0,2,0,1,0,0,3,0,1,8835,
scooby_state_10011c0|7|1 7704,1,0,1115,0,0,1,0,1,5,1,3,1,2,0,8834,
scooby_state_11c49a0|38|0 8812,1,14,2,2,0,1,0,1,0,0,0,0,0,0,8833,
scooby_state_3b1c0|7|2 1917,6569,1,50,0,10,33,4,2,2,3,156,76,2,8,8833,
scooby_state_101eb6c|45|0 8608,1,208,2,1,1,1,1,0,1,1,1,0,2,1,8829,
scooby_state_1001080|2|-5 8819,0,1,1,1,1,1,0,0,1,0,1,1,1,0,8828,
scooby_state_102224c|42|0 7930,82,102,667,35,3,0,1,0,1,1,0,2,0,2,8826,
scooby_state_13d6550|21|1 19,8795,0,1,0,1,0,0,2,2,0,2,0,1,1,8824,
scooby_state_d29e4|39|39 8811,1,1,1,1,0,2,1,0,0,2,1,0,0,1,8822,
scooby_state_1030e10|43|0 8366,6,254,140,4,1,0,1,1,1,1,7,27,1,7,8817,
scooby_state_7b7d59ec|42|0 5961,1452,1123,0,0,1,210,2,1,1,0,0,2,62,1,8816,
scooby_state_101081c|32|0 7863,1,885,0,2,1,2,0,2,1,2,20,22,0,0,8801,
scooby_state_1296214|8|1 8783,0,0,0,0,1,0,2,1,0,2,0,0,2,0,8791,
scooby_state_12961f0|7|3 5179,3564,32,2,0,1,2,0,2,1,0,0,1,0,2,8786,
scooby_state_b0e50|57|25 5060,1,3585,2,0,0,1,1,1,0,1,1,125,0,0,8778,
scooby_state_12279c|30|1 8211,126,200,115,1,1,116,1,0,0,2,1,0,2,1,8777,
scooby_state_1001980|38|-7 8761,1,0,3,1,1,1,0,1,2,2,0,1,1,0,8775,
scooby_state_fc260|9|9 2343,801,967,54,45,4371,0,2,3,1,2,1,171,0,4,8765,
scooby_state_7baeeb80|46|1 8526,0,1,2,222,1,1,1,1,2,2,0,2,1,3,8765,
scooby_state_7baee02c|0|-46 76,1,2,1,8675,0,0,0,3,0,1,1,2,0,1,8763,
scooby_state_56500|20|-10 2708,1,6031,0,2,4,1,1,1,2,1,2,1,1,0,8756,
scooby_state_7bae3c04|48|1 7490,1,43,1023,181,1,0,1,2,0,0,0,1,2,0,8745,
scooby_state_1113c00|48|1 311,264,364,7,95,67,79,4,4,3,5,7524,4,5,8,8744,
scooby_state_11a0214|8|1 8691,37,1,2,0,0,1,0,0,2,2,3,0,1,2,8742,
scooby_state_7be4428c|10|3 2537,48,6124,23,1,0,0,3,1,1,0,1,0,1,2,8742,
scooby_state_11a01c8|7|-8 4860,1,1431,2066,1,40,331,3,2,2,0,1,1,1,0,8740,
scooby_state_7be441c0|7|1 6,8726,0,0,1,1,0,3,0,0,1,0,0,1,1,8740,
scooby_state_e6980|38|1 7631,80,873,114,0,0,1,0,4,3,1,1,0,2,10,8720,
scooby_state_10089c0|39|0 1845,6837,18,3,2,8,0,1,0,1,0,0,0,2,0,8717,
scooby_state_fef47280|10|1 6663,1477,10,196,343,2,1,2,4,3,4,2,3,3,3,8716,
scooby_state_7e360|13|0 4960,3622,2,109,9,1,0,2,0,2,2,1,0,1,1,8712,
scooby_state_e6968|37|0 8681,2,8,0,0,1,0,2,0,4,2,1,1,2,2,8706,
scooby_state_7baee604|24|5 8685,0,0,2,1,1,1,1,1,0,1,0,1,1,3,8698,
scooby_state_1131580|22|0 8529,145,0,3,1,1,2,2,2,0,2,0,2,1,0,8690,
scooby_state_7baed978|37|3 2922,0,5750,2,0,1,1,1,0,3,0,1,3,0,1,8685,
scooby_state_1012380|14|1 1566,1830,2,1,3,1,1,2,1,0,0,0,0,5266,0,8673,
scooby_state_1007514|20|0 8655,1,1,1,1,1,2,0,0,0,3,0,0,1,1,8667,
scooby_state_101217c|5|3 8652,1,0,0,2,2,0,2,0,1,0,0,1,2,2,8665,
scooby_state_10121cc|7|1 8656,2,1,0,3,2,0,1,0,0,0,0,0,0,0,8665,
scooby_state_1012180|6|1 60,1,8594,0,0,1,3,0,2,1,0,1,1,0,0,8664,
scooby_state_1012200|8|1 8597,0,1,0,1,2,3,1,0,3,1,0,1,2,0,8612,
scooby_state_1012240|9|1 8602,1,0,0,0,1,0,0,1,1,1,1,1,1,1,8611,
scooby_state_d168c|26|26 6719,1,0,1,17,1862,4,0,1,1,1,0,1,2,0,8610,
scooby_state_39940|37|0 376,82,8118,1,2,0,1,1,0,0,4,1,2,2,1,8591,
scooby_state_49720|28|0 6616,1940,1,0,0,10,17,0,1,0,0,2,3,0,0,8590,
scooby_state_7baed3b8|14|4 4204,1,103,1,4249,0,0,2,2,1,1,1,0,1,2,8568,
scooby_state_7baee300|12|2 3685,1,2,4636,205,25,1,2,1,1,1,1,1,2,2,8566,
scooby_state_7b7d8c00|48|1 4985,511,2952,70,1,37,1,0,0,1,0,0,0,6,0,8564,
scooby_state_fef429f4|39|25 764,7646,138,0,1,1,0,0,0,1,0,1,2,1,0,8555,
scooby_state_563c0|15|5 4427,1,3998,2,0,1,1,3,1,1,0,96,3,1,4,8539,
scooby_state_7baee0a0|2|2 998,2,1,0,2,7515,2,1,0,2,1,0,2,2,0,8528,
scooby_state_7be440f4|7|0 4497,231,3332,1,450,2,0,0,0,2,3,2,0,2,2,8524,
scooby_state_de300|12|2 7040,1,1429,9,22,0,3,0,2,1,2,0,2,4,2,8517,
scooby_state_3956c|21|-18 8290,0,208,1,0,0,3,1,0,3,1,0,1,2,0,8510,
scooby_state_100703c|0|0 8381,3,1,1,28,1,0,0,1,1,1,89,1,1,1,8510,
scooby_state_7baecfcc|41|0 8483,1,1,0,1,0,1,2,1,2,1,3,2,0,0,8498,
scooby_state_e33cc|15|-17 1278,37,1,7017,0,0,144,2,0,0,0,0,2,1,0,8482,
scooby_state_feec0c00|48|1 2877,4613,16,11,159,1,9,10,9,10,7,114,597,10,34,8477,
scooby_state_7be45c00|48|1 4341,1,4128,1,0,1,0,0,1,1,0,0,1,0,1,8476,
scooby_state_1298c08|48|0 3286,1654,3292,17,0,79,13,16,14,13,14,1,21,2,53,8475,
scooby_state_7baecfe0|42|1 7857,318,0,0,1,13,0,1,0,1,2,4,1,262,0,8460,
scooby_state_1007308|12|12 5029,3118,2,292,3,1,2,3,1,0,1,2,1,1,1,8457,
scooby_state_569b8|24|0 7308,33,1046,2,2,13,1,0,1,0,0,1,1,18,1,8427,
scooby_state_104c680|26|0 8410,0,4,0,1,1,1,1,0,1,1,1,0,0,1,8422,
scooby_state_7bae3c08|42|-1 8008,271,20,4,0,72,3,3,3,2,4,3,3,4,13,8413,
scooby_state_1012280|10|1 5141,333,2545,1,0,2,1,1,1,1,1,378,0,2,1,8408,
scooby_state_56780|30|0 4015,1,732,10,3,37,91,5,5,1,1,1,0,3490,8,8400,
scooby_state_7baedde4|41|0 5437,1345,439,421,183,2,20,99,28,27,30,39,33,29,150,8282,
scooby_state_1001b00|44|0 7717,2,88,447,2,1,1,0,0,1,1,1,1,2,0,8264,
scooby_state_d8e64|57|0 7765,37,324,79,1,0,6,3,3,2,4,0,5,0,10,8239,
scooby_state_8fe40|57|0 4776,3,2351,1023,2,77,0,1,1,0,1,0,3,0,0,8238,
scooby_state_7be4565c|25|-23 8201,0,2,0,3,2,2,2,1,0,1,1,0,0,2,8217,
scooby_state_d1a40|41|1 6768,0,1436,2,1,1,2,1,0,0,0,1,1,1,0,8214,
scooby_state_11c49cc|41|0 3020,1,3115,81,781,794,5,37,22,21,27,144,33,28,84,8193,
scooby_state_ff390b80|46|1 6587,2,1561,1,4,2,1,0,2,0,1,1,0,1,1,8164,
scooby_state_565c0|23|-21 8126,2,0,0,0,0,0,1,1,1,2,0,0,1,1,8135,
scooby_state_fef42b28|44|2 7333,0,747,1,1,33,1,3,2,1,1,0,1,0,1,8125,
scooby_state_1298340|13|1 4482,1042,37,1,78,1,0,1,0,1,1,0,1,2446,1,8092,
scooby_state_d1f80|62|-1 5297,104,32,6,96,1418,4,4,4,5,4,1097,6,5,10,8092,
scooby_state_d1fdc|63|2 8080,3,1,0,1,0,3,0,0,0,0,0,1,1,1,8091,
scooby_state_fef42318|12|0 7959,1,1,0,2,0,3,0,1,1,1,1,1,2,1,7974,
scooby_state_13d9a74|7|0 7329,1,29,103,492,2,1,3,0,1,2,1,1,0,0,7965,
scooby_state_1012300|12|2 7914,0,0,2,4,1,3,1,1,0,0,1,2,0,0,7929,
scooby_state_11c3484|45|0 6782,857,72,62,1,1,1,2,5,6,5,4,3,56,10,7867,
scooby_state_e3640|25|1 1297,751,15,2,5680,0,1,2,1,1,0,0,2,0,0,7752,
scooby_state_e37f8|31|6 7572,1,29,5,14,117,2,1,1,0,0,0,0,1,1,7744,
scooby_state_fef4c70c|28|0 4374,2653,478,9,2,4,1,12,13,13,13,9,19,57,30,7687,
scooby_state_ff390b40|45|1 7637,0,1,2,0,0,0,0,0,1,1,0,2,0,0,7644,
scooby_state_56b04|44|22 851,1,93,6078,139,50,16,29,29,29,28,45,35,44,165,7632,
scooby_state_1298300|12|2 5447,4,2118,2,1,22,1,1,1,1,1,1,1,1,1,7603,
scooby_state_fef42a80|42|3 3010,720,3263,0,513,34,1,0,1,2,1,1,1,0,0,7547,
scooby_state_122740|29|0 7527,4,0,1,1,1,3,1,0,0,2,2,0,2,1,7545,
scooby_state_e38c4|35|1 5020,2322,1,1,2,1,13,0,2,1,3,1,2,1,1,7371,
scooby_state_10074c0|19|1 4934,504,705,642,2,8,25,66,34,33,33,29,108,34,187,7344,
scooby_state_7b7d8750|29|1 4323,0,0,0,2,2,1,0,0,1,1,1,1,2997,1,7330,
scooby_state_7b7d8788|30|1 272,7042,0,2,1,0,1,1,2,0,2,2,0,0,2,7327,
scooby_state_d18d4|35|-27 47,2,1,1,1,7237,2,1,1,0,1,0,1,1,0,7296,
scooby_state_e5380|14|1 2422,0,4820,0,2,0,1,1,1,1,0,0,31,10,0,7289,
scooby_state_10108ec|35|2 6838,389,41,0,10,0,0,1,0,2,2,0,0,0,0,7283,
scooby_state_1012340|13|1 7238,0,2,0,0,0,0,0,1,0,2,0,0,0,1,7244,
scooby_state_e54e0|19|5 7188,1,18,1,2,1,0,1,2,1,2,0,1,2,0,7220,
scooby_state_e537c|13|5 7078,1,0,21,1,1,105,1,0,0,1,1,0,1,2,7213,
scooby_state_e3564|21|1 7202,1,1,0,0,0,1,0,1,1,1,0,0,0,0,7208,
scooby_state_e14e4|19|0 716,1,6479,0,3,0,1,1,0,2,0,1,1,1,1,7207,
scooby_state_e1500|20|1 7185,1,0,2,1,2,0,3,3,2,3,2,2,0,1,7207,
scooby_state_e15c0|23|1 7189,1,1,1,1,0,1,2,0,1,1,1,3,3,2,7207,
scooby_state_e0870|33|3 7196,1,0,0,0,0,1,1,0,0,0,1,2,2,1,7205,
scooby_state_e1600|24|1 5720,25,1366,61,1,0,0,1,1,0,1,1,25,2,1,7205,
scooby_state_ea608|24|5 3535,98,3301,1,0,54,36,0,1,0,0,0,48,129,2,7205,
scooby_state_e14b8|18|-6 5039,123,4,0,1821,0,199,0,0,0,2,1,1,15,0,7205,
scooby_state_e0998|38|0 998,1412,4783,1,0,1,2,2,3,0,0,0,0,0,0,7202,
scooby_state_e3510|20|5 7192,0,0,1,2,0,0,0,1,1,0,0,1,1,0,7199,
scooby_state_e13e4|15|11 7110,5,2,0,2,2,0,0,1,0,0,1,2,0,2,7127,
scooby_state_e1540|21|1 7094,0,1,1,1,1,1,3,0,1,2,0,1,1,1,7108,
scooby_state_e15a8|22|-13 6826,0,4,1,169,95,2,1,0,2,0,1,0,1,4,7106,
scooby_state_e1880|34|1 7095,0,0,0,1,2,1,1,0,1,0,2,1,2,0,7106,
scooby_state_e187c|33|12 47,0,6996,1,1,2,3,0,0,1,0,54,0,1,0,7106,
scooby_state_e18c0|35|1 5367,217,0,24,905,180,23,41,35,19,20,62,43,39,131,7106,
scooby_state_7baed80c|22|0 5939,710,277,80,1,74,0,0,1,1,1,2,1,0,1,7088,
scooby_state_e1974|37|23 7013,0,1,0,0,0,0,1,1,3,1,0,0,2,1,7023,
scooby_state_1131564|21|6 1146,3360,1,1,2484,2,1,2,0,0,2,0,1,0,0,7000,
scooby_state_ff390840|33|2 250,1,6699,2,1,1,1,1,2,3,1,1,0,0,2,6965,
scooby_state_d2840|33|2 3793,1,19,0,0,3082,0,1,1,0,1,1,1,59,1,6960,
scooby_state_1113a9c|42|0 6808,119,1,1,0,0,2,1,0,1,2,1,1,0,0,6937,
scooby_state_d157c|21|-21 6917,1,0,0,0,1,1,1,1,0,2,0,0,1,1,6926,
scooby_state_ff390940|37|4 2455,72,221,0,4046,1,0,5,3,4,3,1,7,6,6,6830,
scooby_state_e0ac0|43|1 6803,0,0,1,0,1,2,1,0,1,2,3,1,1,0,6816,
scooby_state_e09a8|25|-5 5403,24,191,121,0,0,1,43,47,45,40,32,476,115,228,6766,
scooby_state_10089f0|8|0 5643,9,635,1,38,26,393,2,2,0,1,1,0,0,1,6752,
scooby_state_1226a0|26|14 6695,4,0,0,0,2,0,1,0,1,0,43,0,0,0,6746,
scooby_state_104c5a4|8|0 2009,1,4512,78,7,1,44,1,4,0,2,10,0,2,1,6672,
scooby_state_1072ef4|22|0 6367,0,2,82,30,0,1,11,5,5,0,152,4,0,4,6663,
scooby_state_7b7d8574|30|8 6584,2,1,1,1,0,0,2,2,4,2,53,1,1,0,6654,
scooby_state_7baee480|18|5 6649,1,0,0,0,0,1,1,0,0,0,0,0,0,0,6652,
scooby_state_7baed4f4|19|4 1208,1,0,1,5431,2,0,0,1,1,4,0,1,1,0,6651,
scooby_state_3c000|0|0 906,0,5727,1,2,2,0,1,0,1,0,2,2,0,0,6644,
scooby_state_1001480|18|-16 6595,0,1,0,1,1,1,1,1,1,0,1,0,1,3,6607,
scooby_state_1007480|18|0 6388,1,2,185,0,0,0,0,1,0,0,1,1,1,3,6583,
scooby_state_56480|18|5 6234,0,0,0,2,1,25,4,2,0,0,301,4,0,2,6575,
scooby_state_11a2ff0|44|0 156,3,181,0,0,18,2,0,0,3,2,6142,4,0,1,6512,
scooby_state_7baee8b8|8|1 5688,755,3,4,1,0,1,2,0,2,2,0,1,1,2,6462,
scooby_state_d1a80|42|1 1666,1784,22,2831,1,0,1,1,1,1,0,146,0,1,1,6456,
scooby_state_3c080|2|2 841,1,0,0,5598,1,1,1,1,0,0,1,1,1,0,6447,
scooby_state_1010840|25|0 5592,1,10,20,500,38,0,0,0,1,2,275,1,0,1,6441,
scooby_state_1000ca8|24|0 5881,310,49,8,1,0,2,38,14,9,9,8,1,47,22,6399,
scooby_state_1298b0c|44|0 2327,2919,1110,0,10,1,2,0,0,0,0,3,0,1,0,6373,
scooby_state_1010844|24|0 6327,3,0,11,1,13,0,0,0,1,2,1,3,0,0,6362,
scooby_state_1130b00|44|1 6350,0,1,1,0,2,2,1,1,1,0,0,1,0,2,6362,
scooby_state_e1180|6|1 5324,1,711,1,316,0,0,1,2,0,0,2,1,0,0,6359,
scooby_state_1113b0c|44|1 4,2,383,0,5961,1,0,1,1,0,1,0,2,1,1,6358,
scooby_state_1113ad0|43|1 6346,0,1,1,1,2,0,1,0,0,3,1,0,1,1,6358,
scooby_state_1130afc|43|0 6277,1,0,1,1,0,1,0,0,0,0,73,0,1,0,6355,
scooby_state_feec0ae4|43|0 3326,1,1,2614,0,0,165,0,1,1,2,225,2,1,0,6339,
scooby_state_feec0b0c|44|1 6332,0,0,2,0,1,0,1,1,0,0,0,2,0,0,6339,
scooby_state_109aac4|43|1 4605,1,1144,1,195,141,4,47,14,13,14,11,11,10,128,6339,
scooby_state_7baedda4|12|0 6272,0,55,0,2,0,1,0,2,0,0,0,0,1,0,6333,
scooby_state_e1374|13|7 6245,2,0,0,1,0,0,2,0,0,1,1,2,0,1,6255,
scooby_state_d19b0|38|3 2560,3677,0,2,2,1,0,1,0,2,1,1,1,2,2,6252,
scooby_state_1030d94|54|0 1115,0,5077,1,2,0,0,1,0,2,1,0,2,1,0,6202,
scooby_state_1001988|43|1 3228,220,2351,122,2,3,18,17,15,11,15,85,16,28,55,6186,
scooby_state_563a8|14|-13 4850,8,213,0,1101,0,1,1,1,2,0,1,1,3,0,6182,
scooby_state_566c0|27|1 6137,2,32,2,1,2,0,0,2,1,0,0,0,1,0,6180,
scooby_state_3b23c|8|0 7,0,5669,338,0,60,2,15,10,10,14,1,2,1,42,6171,
scooby_state_7baed0e4|24|0 4661,1465,2,1,38,2,0,0,0,0,0,0,1,0,0,6170,
scooby_state_7baecfd4|0|0 5479,39,613,1,0,1,1,2,0,1,1,14,2,2,0,6156,
scooby_state_e08c0|35|1 2826,0,37,0,3210,1,0,1,0,0,1,0,3,0,0,6079,
scooby_state_d1d80|54|8 3232,1,2773,0,16,2,0,2,0,0,0,33,1,1,0,6061,
scooby_state_d1bc4|47|-7 1250,0,4667,111,4,1,0,0,3,3,1,2,4,6,6,6058,
scooby_state_e0b00|44|9 5821,2,60,127,0,0,1,1,3,0,1,0,3,0,3,6022,
scooby_state_3c240|9|1 169,0,0,1,2,0,5780,1,1,0,1,0,0,0,0,5955,
scooby_state_7baedd34|25|1 4420,190,71,1038,6,3,8,16,13,12,11,12,6,96,39,5941,
scooby_state_46200|8|1 5913,2,0,1,1,0,1,1,2,1,0,0,0,0,0,5922,
scooby_state_10019c0|42|1 4608,1238,0,42,3,1,0,1,2,1,1,1,1,11,0,5910,
scooby_state_461c8|7|0 5838,1,0,0,0,1,1,1,1,1,0,1,1,2,0,5848,
scooby_state_e0f8c|62|1 5754,2,0,0,2,58,1,0,0,0,1,0,4,0,1,5823,
scooby_state_ff390b00|44|1 5800,0,2,0,1,1,0,2,1,0,2,2,0,0,3,5814,
scooby_state_1149e80|58|1 1994,0,3577,78,25,53,29,2,2,3,4,3,3,5,10,5788,
scooby_state_1072da4|54|0 5758,0,0,3,2,0,0,0,0,0,0,0,0,2,0,5765,
scooby_state_53db4|54|21 5107,27,615,0,3,0,1,0,0,0,1,3,0,1,1,5759,
scooby_state_7baede80|58|1 3461,169,2092,2,0,0,4,0,3,2,1,1,0,3,0,5738,
scooby_state_1072e80|58|1 2772,1680,1140,0,0,87,6,8,7,7,7,0,1,0,19,5734,
scooby_state_7baedd80|54|10 5710,1,1,0,0,2,0,0,1,1,0,0,0,0,2,5718,
scooby_state_e6bf0|47|1 5403,2,254,1,0,3,2,2,0,1,0,24,0,1,0,5693,
scooby_state_ff390afc|43|6 3187,0,0,2449,0,0,1,3,2,0,1,0,0,0,1,5644,
scooby_state_1007348|0|0 5408,7,1,139,1,20,39,1,1,2,1,1,1,17,0,5639,
scooby_state_e6b80|46|1 1374,1160,2848,41,0,1,186,1,1,1,0,1,0,25,0,5639,
scooby_state_1009e80|58|1 2844,4,2419,1,354,1,0,0,0,0,0,2,0,1,1,5627,
scooby_state_ff390e80|58|1 5174,1,1,2,22,1,414,0,0,1,0,1,1,2,0,5620,
scooby_state_1030e90|58|1 5562,1,2,5,0,43,0,0,0,0,0,1,0,1,0,5615,
scooby_state_3bf90|62|0 5342,1,178,0,1,19,55,1,1,0,1,12,1,0,0,5612,
scooby_state_3b23c|14|7 2739,808,4,1599,20,8,26,31,31,34,36,74,43,61,95,5609,
scooby_state_1009e24|23|0 5456,70,68,4,0,2,1,0,3,0,1,0,0,2,0,5607,
scooby_state_feea4600|24|1 3448,144,1435,222,12,8,10,12,14,14,13,159,14,18,31,5554,
scooby_state_1149f4c|61|1 5528,0,2,2,0,1,1,1,1,0,0,0,2,0,1,5539,
scooby_state_7baedf40|61|1 5219,6,1,2,206,75,3,0,2,3,2,8,3,1,4,5535,
scooby_state_1072f68|61|1 5228,200,9,25,0,0,1,1,1,0,0,63,2,0,1,5531,
scooby_state_10f5740|29|1 3977,2,1526,0,0,2,0,1,0,2,2,0,1,0,3,5516,
scooby_state_7baedf10|60|1 5320,1,138,41,1,5,1,0,0,0,0,1,1,2,0,5511,
scooby_state_7baedee0|59|1 1071,4266,169,2,0,0,0,0,1,0,0,0,0,0,0,5509,
scooby_state_7be4bf44|61|1 5192,260,51,0,1,0,1,0,0,0,1,0,2,0,0,5508,
scooby_state_7be4bf00|60|0 0,5371,128,0,2,2,0,1,0,0,0,1,2,0,1,5508,
scooby_state_1072f00|60|1 5436,63,0,3,0,0,1,0,0,1,1,2,0,0,0,5507,
scooby_state_1072e50|57|2 5495,0,0,0,0,2,2,3,1,0,1,1,0,0,0,5505,
scooby_state_1072ed0|59|1 5473,20,1,0,0,2,0,2,1,1,1,0,1,1,2,5505,
scooby_state_e0f40|61|1 5497,2,0,1,0,0,0,2,0,0,1,0,1,0,0,5504,
scooby_state_10f5700|28|1 5490,0,0,0,1,0,2,0,0,1,2,0,1,1,2,5500,
scooby_state_7baeddc0|55|1 3389,0,2094,0,0,0,0,1,1,2,0,1,0,1,1,5490,
scooby_state_1072dc0|55|1 5442,0,0,0,22,0,15,1,2,0,0,1,0,2,1,5486,
scooby_state_e0ec0|59|1 347,5132,0,1,1,2,0,1,0,0,0,1,0,0,0,5485,
scooby_state_e0f00|60|1 3277,2196,1,0,1,1,1,0,0,1,0,1,2,1,2,5484,
scooby_state_7be4c4d8|0|0 3557,0,1456,441,1,0,0,1,2,0,2,0,1,1,1,5463,
scooby_state_10f5680|26|1 3921,1503,2,0,0,25,0,0,0,0,1,0,0,0,1,5453,
scooby_state_105ab70|45|0 5438,0,1,0,2,0,2,1,1,0,0,0,1,0,1,5447,
scooby_state_ff390dc0|55|1 5272,0,167,0,0,0,0,0,1,1,0,0,1,1,0,5443,
scooby_state_1049dc0|55|0 5020,65,0,131,101,54,1,7,8,6,5,5,13,0,23,5439,
scooby_state_7b7d861c|12|0 4650,12,15,0,0,713,0,0,0,0,1,1,1,24,0,5417,
scooby_state_1009f40|61|1 5020,48,91,24,2,2,0,1,1,0,1,220,1,0,1,5412,
scooby_state_1000ca8|45|0 5002,234,43,6,2,0,2,30,9,9,8,6,2,34,23,5410,
scooby_state_10f56fc|27|0 897,1,0,33,4,59,984,1,0,1,0,3422,0,2,1,5405,
scooby_state_1009ec0|59|1 1954,0,3442,0,0,0,0,0,1,0,0,0,0,2,1,5400,
scooby_state_1009f00|60|1 5358,1,1,1,28,1,2,0,1,0,0,2,2,0,0,5397,
scooby_state_105ab80|46|1 5361,1,10,0,1,3,1,0,2,3,0,2,1,1,0,5386,
scooby_state_105abc0|47|1 224,0,0,1,5149,1,5,0,0,0,1,2,0,0,1,5384,
scooby_state_105aec0|59|1 3353,0,1836,3,2,75,61,4,5,4,6,1,9,0,24,5383,
scooby_state_105ac24|48|1 5301,0,0,66,0,1,0,0,2,0,0,0,1,0,2,5373,
scooby_state_10f5668|25|-4 3945,547,0,1,861,0,1,1,2,1,1,1,1,2,0,5364,
scooby_state_105ae80|58|1 4627,692,1,1,1,33,1,0,1,0,1,0,0,0,1,5359,
scooby_state_3c100|4|-6 1970,174,0,3204,0,2,0,1,1,0,0,1,0,0,0,5353,
scooby_state_1296234|32|0 4621,229,289,148,50,2,0,1,2,1,0,3,2,1,0,5349,
scooby_state_13d63a4|14|0 5049,1,0,274,0,0,1,0,0,0,0,0,1,1,1,5328,
scooby_state_1030dc0|55|1 5252,1,1,1,1,1,0,2,1,0,1,58,0,0,0,5319,
scooby_state_1297e88|58|1 2916,1,2361,2,1,1,0,1,0,0,0,1,0,0,0,5284,
scooby_state_129823c|8|1 5277,0,1,0,0,0,1,0,1,0,0,1,1,2,0,5284,
scooby_state_105adc0|55|1 564,4713,0,1,0,0,0,1,1,0,1,1,0,0,2,5284,
scooby_state_1298240|9|1 3838,1379,51,0,1,3,1,0,2,1,1,2,3,1,1,5284,
scooby_state_1298100|4|1 1043,1,4229,1,1,2,2,0,0,1,1,0,1,1,1,5284,
scooby_state_1298000|0|-14 5,5269,2,0,2,0,1,0,0,0,0,1,1,2,1,5284,
scooby_state_12981c0|7|1 4984,294,2,1,0,0,0,1,1,0,0,1,0,0,0,5284,
scooby_state_129838c|14|1 4565,580,1,71,61,0,0,0,0,0,2,1,1,0,2,5284,
scooby_state_12980a8|2|2 32,5249,1,1,0,0,0,1,0,0,0,0,0,0,0,5284,
scooby_state_1297f80|62|1 5270,0,2,1,5,0,0,0,1,1,1,0,0,1,2,5284,
scooby_state_1297f40|61|1 4327,29,875,10,0,0,2,2,1,0,1,10,0,25,2,5284,
scooby_state_12980c0|3|1 688,4589,1,0,1,0,1,0,0,0,2,1,1,0,0,5284,
scooby_state_1297f00|60|1 5265,2,1,0,0,3,0,0,1,1,2,2,0,2,4,5283,
scooby_state_1297ec0|59|1 3424,0,495,0,1359,2,0,0,1,1,0,0,1,0,0,5283,
scooby_state_1297fc0|63|1 4818,2,338,4,116,1,0,0,0,0,0,0,1,2,0,5282,
scooby_state_1297e44|57|10 5264,0,0,0,3,1,1,0,0,2,2,2,0,3,2,5280,
scooby_state_129818c|6|1 1791,3481,1,0,0,1,0,0,0,1,0,1,0,1,0,5277,
scooby_state_1298140|5|1 4949,1,1,92,1,1,229,1,0,0,0,0,1,0,1,5277,
scooby_state_56294|10|-4 1028,0,0,4217,2,1,10,0,1,1,0,1,2,0,2,5265,
scooby_state_7baede40|57|2 287,2,4932,0,1,0,1,1,0,1,0,2,1,0,1,5229,
scooby_state_104b0e0|3|-41 5002,1,173,0,1,1,33,1,1,0,1,2,2,0,2,5220,
scooby_state_ff390e40|57|2 3966,566,658,0,5,18,1,2,1,0,1,0,1,1,0,5220,
scooby_state_104c658|1|0 3544,2,906,15,312,8,100,24,27,23,29,12,17,123,66,5208,
scooby_state_1298330|1|0 4104,0,1,908,131,0,0,0,1,0,1,2,0,51,1,5200,
scooby_state_1009e5c|24|1 5172,1,1,0,1,6,0,2,2,2,0,3,1,0,0,5191,
scooby_state_feead56c|1|0 2885,95,1041,1012,28,19,68,0,1,1,1,0,0,12,0,5163,
scooby_state_3b080|2|-60 790,4348,2,1,0,1,1,2,1,0,1,1,0,0,1,5149,
scooby_state_114af44|61|0 3272,545,3,1233,31,1,2,8,7,6,9,2,0,1,27,5147,
scooby_state_1009dfc|55|0 20,0,5066,1,1,1,0,1,0,3,0,0,0,1,0,5094,
scooby_state_1113d80|54|10 4814,113,0,80,0,30,1,1,2,1,0,1,26,3,3,5075,
scooby_state_114b080|2|2 2282,0,2625,0,33,0,124,3,0,1,1,0,0,1,0,5070,
scooby_state_e0798|30|-13 407,4653,1,1,0,1,0,1,1,0,0,3,0,1,0,5069,
scooby_state_104aee0|59|0 11,5000,52,0,1,0,1,1,0,0,0,1,1,0,0,5068,
scooby_state_101090c|25|1 2923,5,1836,63,109,1,0,17,18,15,16,1,14,0,41,5059,
scooby_state_3c23c|8|4 4000,432,583,0,0,0,1,0,1,1,1,2,3,1,0,5025,
scooby_state_104afac|62|3 4774,7,0,232,0,2,1,0,1,1,1,1,1,0,0,5021,
scooby_state_7bae3bf0|43|-1 5017,0,0,0,0,0,0,1,0,0,0,0,0,0,1,5019,
scooby_state_104bb00|44|1 1978,52,1214,5,1717,0,1,0,0,0,1,0,1,37,1,5007,
scooby_state_1030e40|57|2 4332,646,2,1,0,0,1,0,0,0,1,1,0,0,2,4986,
scooby_state_1130b3c|8|0 4143,740,58,0,0,12,2,12,2,3,1,0,2,2,2,4979,
scooby_state_1298104|12|0 4809,1,1,0,1,50,2,1,0,1,0,101,0,1,3,4971,
scooby_state_3c028|7|0 4908,47,0,0,3,7,3,0,0,1,0,0,1,0,1,4971,
scooby_state_105ae40|57|2 4933,2,1,0,2,0,2,0,0,1,1,1,16,1,1,4961,
scooby_state_7baede38|45|0 4886,13,10,1,1,0,6,2,0,2,1,1,0,1,0,4924,
scooby_state_d202c|0|-33 2324,226,12,2335,22,0,0,0,0,0,1,1,0,0,1,4922,
scooby_state_3c02c|32|0 3744,775,2,0,99,0,0,2,0,0,3,176,1,111,1,4914,
scooby_state_d27cc|12|0 4062,159,547,63,2,3,2,7,5,5,6,6,27,4,13,4911,
scooby_state_d8dd8|55|0 2152,1,1881,96,0,0,0,0,0,1,0,726,0,1,2,4860,
scooby_state_e1140|5|-10 4846,0,2,1,1,1,0,1,0,0,0,1,0,0,2,4855,
scooby_state_ff390bc0|47|1 4842,1,2,1,2,0,0,0,0,0,0,0,0,0,2,4850,
scooby_state_10089f0|29|0 4442,1,289,2,12,8,92,0,0,0,1,0,1,0,2,4850,
scooby_state_1009e40|57|2 1280,1,1,3516,0,0,1,0,1,1,0,1,0,0,0,4802,
scooby_state_8fdc0|55|1 4709,0,1,0,30,0,1,0,2,1,0,0,0,11,1,4756,
scooby_state_d1f40|61|1 3159,114,767,374,1,2,23,16,21,21,21,0,25,33,102,4679,
scooby_state_39a74|1|0 4502,53,2,107,0,2,0,0,0,1,0,0,0,1,5,4673,
scooby_state_e0eac|58|13 1016,0,1,3642,1,1,1,1,1,1,0,1,3,1,1,4671,
scooby_state_105ac3c|23|0 2597,86,1820,39,3,75,1,0,3,1,1,0,1,1,18,4646,
scooby_state_8fe34|30|0 3011,1177,394,2,5,29,1,0,1,0,1,0,13,0,0,4634,
scooby_state_fef415c8|23|0 4145,35,12,50,1,1,1,0,2,1,1,363,0,0,2,4614,
scooby_state_d1f1c|60|0 1809,2093,700,2,0,2,1,1,0,0,0,0,1,1,0,4610,
scooby_state_1008ac0|43|1 1211,4,2051,37,550,276,7,11,12,10,13,9,180,191,36,4598,
scooby_state_1008a80|42|3 4485,0,1,26,0,3,0,0,3,1,0,0,1,1,1,4522,
scooby_state_ff390db8|54|7 264,0,4240,0,0,2,1,0,2,0,1,0,0,0,1,4511,
scooby_state_d1f40|61|0 4431,0,0,1,1,0,0,0,0,0,0,0,1,1,0,4435,
scooby_state_13d6514|31|0 3610,350,214,1,47,133,0,6,4,4,2,0,0,11,13,4395,
scooby_state_104bafc|43|0 4380,0,0,0,0,2,2,1,1,1,0,0,0,0,0,4387,
scooby_state_7baedd94|9|0 4290,1,0,2,1,0,0,1,1,0,1,0,0,0,1,4298,
[...]
scooby_state_12eeea4|54|-9 1,0,0,0,0,0,0,0,0,0,0,0,0,0,0,1,
scooby_state_8fd20|59|-1 1,0,0,0,0,0,0,0,0,0,0,0,0,0,0,1,
scooby_state_fef4d880|34|0 1,0,0,0,0,0,0,0,0,0,0,0,0,0,0,1,
scooby_state_56508|13|-4 0,1,0,0,0,0,0,0,0,0,0,0,0,0,0,1,
scooby_state_10074d8|29|4 1,0,0,0,0,0,0,0,0,0,0,0,0,0,0,1,
scooby_state_12c887c|33|-2 0,1,0,0,0,0,0,0,0,0,0,0,0,0,0,1,
scooby_state_7baed3e8|19|-2 0,1,0,0,0,0,0,0,0,0,0,0,0,0,0,1,
scooby_state_1297f64|62|2 0,0,0,1,0,0,0,0,0,0,0,0,0,0,0,1,
scooby_state_11fca48|57|20 1,0,0,0,0,0,0,0,0,0,0,0,0,0,0,1,
scooby_state_49728|58|24 1,0,0,0,0,0,0,0,0,0,0,0,0,0,0,1,
scooby_state_49728|37|24 1,0,0,0,0,0,0,0,0,0,0,0,0,0,0,1,
scooby_state_12c88a4|58|24 1,0,0,0,0,0,0,0,0,0,0,0,0,0,0,1,
scooby_state_d27cc|2|-1 1,0,0,0,0,0,0,0,0,0,0,0,0,0,0,1,
scooby_state_ff390c50|24|-20 1,0,0,0,0,0,0,0,0,0,0,0,0,0,0,1,
scooby_state_497a4|9|1 1,0,0,0,0,0,0,0,0,0,0,0,0,0,0,1,
scooby_state_1012278|52|3 0,0,0,1,0,0,0,0,0,0,0,0,0,0,0,1,
scooby_state_3b07c|49|37 1,0,0,0,0,0,0,0,0,0,0,0,0,0,0,1,
scooby_state_1136c00|54|3 1,0,0,0,0,0,0,0,0,0,0,0,0,0,0,1,
scooby_state_1063970|59|41 1,0,0,0,0,0,0,0,0,0,0,0,0,0,0,1,
scooby_state_129814c|0|-1 1,0,0,0,0,0,0,0,0,0,0,0,0,0,0,1,
scooby_state_e152c|59|14 1,0,0,0,0,0,0,0,0,0,0,0,0,0,0,1,
scooby_state_10122b0|17|2 1,0,0,0,0,0,0,0,0,0,0,0,0,0,0,1,
scooby_state_ff390958|48|2 1,0,0,0,0,0,0,0,0,0,0,0,0,0,0,1,
scooby_state_d1840|26|2 0,0,1,0,0,0,0,0,0,0,0,0,0,0,0,1,
scooby_state_10ffe08|43|0 0,0,0,0,0,0,1,0,0,0,0,0,0,0,0,1,
scooby_state_1136c00|51|35 1,0,0,0,0,0,0,0,0,0,0,0,0,0,0,1,
scooby_state_101e824|1|-17 1,0,0,0,0,0,0,0,0,0,0,0,0,0,0,1,
scooby_state_ff390e28|48|-2 0,0,1,0,0,0,0,0,0,0,0,0,0,0,0,1,
scooby_state_e9794|28|-10 1,0,0,0,0,0,0,0,0,0,0,0,0,0,0,1,
scooby_state_13cc660|34|0 0,0,1,0,0,0,0,0,0,0,0,0,0,0,0,1,
scooby_state_1136c00|4|-2 1,0,0,0,0,0,0,0,0,0,0,0,0,0,0,1,
scooby_state_d27cc|36|31 0,0,0,0,0,0,1,0,0,0,0,0,0,0,0,1,
scooby_state_565b8|22|0 0,0,1,0,0,0,0,0,0,0,0,0,0,0,0,1,
scooby_state_12cb890|47|0 1,0,0,0,0,0,0,0,0,0,0,0,0,0,0,1,
scooby_state_e0808|24|-2 0,0,1,0,0,0,0,0,0,0,0,0,0,0,0,1,
scooby_state_56798|49|0 1,0,0,0,0,0,0,0,0,0,0,0,0,0,0,1,
scooby_state_ff390c54|3|-1 1,0,0,0,0,0,0,0,0,0,0,0,0,0,0,1,
scooby_state_fef41774|10|0 1,0,0,0,0,0,0,0,0,0,0,0,0,0,0,1,
scooby_state_fb690|56|3 1,0,0,0,0,0,0,0,0,0,0,0,0,0,0,1,
scooby_state_e0a2c|44|1 0,0,0,0,0,0,0,0,0,0,0,0,0,1,0,1,
scooby_state_12cc7cc|60|0 1,0,0,0,0,0,0,0,0,0,0,0,0,0,0,1,
scooby_state_13cf2e0|57|0 1,0,0,0,0,0,0,0,0,0,0,0,0,0,0,1,
scooby_state_13c2044|31|0 1,0,0,0,0,0,0,0,0,0,0,0,0,0,0,1,
scooby_state_564f4|2|-8 1,0,0,0,0,0,0,0,0,0,0,0,0,0,0,1,
scooby_state_1130b68|54|-1 1,0,0,0,0,0,0,0,0,0,0,0,0,0,0,1,
scooby_state_1136ac8|28|1 0,0,0,1,0,0,0,0,0,0,0,0,0,0,0,1,
scooby_state_3c074|34|0 1,0,0,0,0,0,0,0,0,0,0,0,0,0,0,1,
scooby_state_e18b8|49|5 1,0,0,0,0,0,0,0,0,0,0,0,0,0,0,1,
scooby_state_46184|53|0 1,0,0,0,0,0,0,0,0,0,0,0,0,0,0,1,
scooby_state_fb6b8|56|2 0,0,0,0,1,0,0,0,0,0,0,0,0,0,0,1,
scooby_state_4dcac|0|-1 1,0,0,0,0,0,0,0,0,0,0,0,0,0,0,1,
scooby_state_1000d28|48|16 0,0,0,1,0,0,0,0,0,0,0,0,0,0,0,1,
scooby_state_d2c70|49|1 1,0,0,0,0,0,0,0,0,0,0,0,0,0,0,1,
scooby_state_e1508|38|8 0,0,0,1,0,0,0,0,0,0,0,0,0,0,0,1,
scooby_state_e387c|46|39 1,0,0,0,0,0,0,0,0,0,0,0,0,0,0,1,
scooby_state_ff390c50|9|8 0,1,0,0,0,0,0,0,0,0,0,0,0,0,0,1,
scooby_state_46130|60|-1 1,0,0,0,0,0,0,0,0,0,0,0,0,0,0,1,
scooby_state_ff390e00|44|-5 1,0,0,0,0,0,0,0,0,0,0,0,0,0,0,1,
scooby_state_10dde50|57|0 0,0,1,0,0,0,0,0,0,0,0,0,0,0,0,1,
scooby_state_537f4|38|2 0,0,1,0,0,0,0,0,0,0,0,0,0,0,0,1,
scooby_state_1308608|30|18 1,0,0,0,0,0,0,0,0,0,0,0,0,0,0,1,
scooby_state_1297f70|20|2 1,0,0,0,0,0,0,0,0,0,0,0,0,0,0,1,
scooby_state_d1b14|28|0 0,0,0,0,1,0,0,0,0,0,0,0,0,0,0,1,
scooby_state_e18b8|61|1 1,0,0,0,0,0,0,0,0,0,0,0,0,0,0,1,
scooby_state_1297f4c|59|3 0,0,1,0,0,0,0,0,0,0,0,0,0,0,0,1,
scooby_state_ff390c50|47|17 0,1,0,0,0,0,0,0,0,0,0,0,0,0,0,1,
scooby_state_e08f8|19|0 0,0,1,0,0,0,0,0,0,0,0,0,0,0,0,1,
scooby_state_1012210|54|3 0,0,1,0,0,0,0,0,0,0,0,0,0,0,0,1,
scooby_state_56310|25|6 1,0,0,0,0,0,0,0,0,0,0,0,0,0,0,1,
scooby_state_11c56c0|51|0 1,0,0,0,0,0,0,0,0,0,0,0,0,0,0,1,
scooby_state_e1508|48|8 1,0,0,0,0,0,0,0,0,0,0,0,0,0,0,1,
scooby_state_13cb700|6|6 0,0,1,0,0,0,0,0,0,0,0,0,0,0,0,1,
scooby_state_12cbd9c|1|0 0,0,1,0,0,0,0,0,0,0,0,0,0,0,0,1,
scooby_state_10631a4|11|7 1,0,0,0,0,0,0,0,0,0,0,0,0,0,0,1,
scooby_state_e1374|27|0 1,0,0,0,0,0,0,0,0,0,0,0,0,0,0,1,
scooby_state_e0b5c|5|1 1,0,0,0,0,0,0,0,0,0,0,0,0,0,0,1,
scooby_state_12cb780|46|0 1,0,0,0,0,0,0,0,0,0,0,0,0,0,0,1,
scooby_state_563c0|32|-31 1,0,0,0,0,0,0,0,0,0,0,0,0,0,0,1,
scooby_state_1008aac|58|-4 0,0,1,0,0,0,0,0,0,0,0,0,0,0,0,1,
scooby_state_12cf384|54|-8 1,0,0,0,0,0,0,0,0,0,0,0,0,0,0,1,
scooby_state_13217a8|29|16 1,0,0,0,0,0,0,0,0,0,0,0,0,0,0,1,
scooby_state_4948c|48|-1 0,0,1,0,0,0,0,0,0,0,0,0,0,0,0,1,
scooby_state_10d3044|3|1 1,0,0,0,0,0,0,0,0,0,0,0,0,0,0,1,
scooby_state_569b4|21|-1 1,0,0,0,0,0,0,0,0,0,0,0,0,0,0,1,
scooby_state_12c88a4|35|1 0,0,0,0,0,0,0,0,0,0,0,1,0,0,0,1,
scooby_state_1012260|34|3 1,0,0,0,0,0,0,0,0,0,0,0,0,0,0,1,
scooby_state_e0f40|61|2 1,0,0,0,0,0,0,0,0,0,0,0,0,0,0,1,
scooby_state_ff390ce4|51|6 1,0,0,0,0,0,0,0,0,0,0,0,0,0,0,1,
scooby_state_11e9e6c|57|-2 0,0,1,0,0,0,0,0,0,0,0,0,0,0,0,1,
scooby_state_e1400|52|29 1,0,0,0,0,0,0,0,0,0,0,0,0,0,0,1,
scooby_state_12cf39c|45|11 1,0,0,0,0,0,0,0,0,0,0,0,0,0,0,1,
scooby_state_563c4|36|4 1,0,0,0,0,0,0,0,0,0,0,0,0,0,0,1,
scooby_state_1297ff8|32|5 1,0,0,0,0,0,0,0,0,0,0,0,0,0,0,1,
scooby_state_e15ec|63|9 1,0,0,0,0,0,0,0,0,0,0,0,0,0,0,1,
scooby_state_114b024|19|0 1,0,0,0,0,0,0,0,0,0,0,0,0,0,0,1,
scooby_state_e391c|16|-5 0,1,0,0,0,0,0,0,0,0,0,0,0,0,0,1,
scooby_state_d2898|6|0 0,0,1,0,0,0,0,0,0,0,0,0,0,0,0,1,
scooby_state_e0a30|0|-3 1,0,0,0,0,0,0,0,0,0,0,0,0,0,0,1,
scooby_state_12cc7cc|42|-1 1,0,0,0,0,0,0,0,0,0,0,0,0,0,0,1,
scooby_state_11ec37c|3|-7 1,0,0,0,0,0,0,0,0,0,0,0,0,0,0,1,
scooby_state_13b0270|45|-2 1,0,0,0,0,0,0,0,0,0,0,0,0,0,0,1,
scooby_state_12cf39c|37|-22 1,0,0,0,0,0,0,0,0,0,0,0,0,0,0,1,
scooby_state_132288c|3|1 0,0,0,1,0,0,0,0,0,0,0,0,0,0,0,1,
scooby_state_12cb3a8|46|0 0,0,1,0,0,0,0,0,0,0,0,0,0,0,0,1,
scooby_state_ff390ce4|37|1 1,0,0,0,0,0,0,0,0,0,0,0,0,0,0,1,
scooby_state_8fcd0|51|0 1,0,0,0,0,0,0,0,0,0,0,0,0,0,0,1,
scooby_state_ff390b74|60|-1 1,0,0,0,0,0,0,0,0,0,0,0,0,0,0,1,
scooby_state_12cb3b0|51|0 0,0,0,0,1,0,0,0,0,0,0,0,0,0,0,1,
scooby_state_ff390e10|52|-7 1,0,0,0,0,0,0,0,0,0,0,0,0,0,0,1,
scooby_state_e340c|29|7 0,0,0,1,0,0,0,0,0,0,0,0,0,0,0,1,
scooby_state_ff390de0|6|-4 1,0,0,0,0,0,0,0,0,0,0,0,0,0,0,1,
scooby_state_fef43918|36|1 0,0,0,1,0,0,0,0,0,0,0,0,0,0,0,1,
scooby_state_e13b0|3|3 1,0,0,0,0,0,0,0,0,0,0,0,0,0,0,1,
scooby_state_1001b00|15|2 1,0,0,0,0,0,0,0,0,0,0,0,0,0,0,1,
scooby_state_ff390e28|48|-4 1,0,0,0,0,0,0,0,0,0,0,0,0,0,0,1,
scooby_state_1297b5c|46|1 0,0,0,1,0,0,0,0,0,0,0,0,0,0,0,1,
scooby_state_1321808|51|-10 1,0,0,0,0,0,0,0,0,0,0,0,0,0,0,1,
scooby_state_ff390e18|37|-7 1,0,0,0,0,0,0,0,0,0,0,0,0,0,0,1,
scooby_state_1009eac|43|-9 0,1,0,0,0,0,0,0,0,0,0,0,0,0,0,1,
scooby_state_ff390dbc|9|5 0,0,1,0,0,0,0,0,0,0,0,0,0,0,0,1,
scooby_state_12cbc44|8|1 1,0,0,0,0,0,0,0,0,0,0,0,0,0,0,1,
scooby_state_e15b4|41|9 0,0,1,0,0,0,0,0,0,0,0,0,0,0,0,1,
scooby_state_e361c|20|-15 1,0,0,0,0,0,0,0,0,0,0,0,0,0,0,1,
scooby_state_ff39094c|30|2 1,0,0,0,0,0,0,0,0,0,0,0,0,0,0,1,
scooby_state_ea518|42|6 1,0,0,0,0,0,0,0,0,0,0,0,0,0,0,1,
scooby_state_12cb890|45|0 1,0,0,0,0,0,0,0,0,0,0,0,0,0,0,1,
scooby_state_fef429f4|11|2 0,1,0,0,0,0,0,0,0,0,0,0,0,0,0,1,
scooby_state_e0a2c|14|-1 1,0,0,0,0,0,0,0,0,0,0,0,0,0,0,1,
scooby_state_39a70|21|-42 1,0,0,0,0,0,0,0,0,0,0,0,0,0,0,1,
scooby_state_e9794|6|-4 1,0,0,0,0,0,0,0,0,0,0,0,0,0,0,1,
scooby_state_569bc|50|1 1,0,0,0,0,0,0,0,0,0,0,0,0,0,0,1,
scooby_state_12cc23c|0|-41 1,0,0,0,0,0,0,0,0,0,0,0,0,0,0,1,
scooby_state_ff390c6c|11|-2 1,0,0,0,0,0,0,0,0,0,0,0,0,0,0,1,
scooby_state_56504|6|-8 0,0,0,0,0,0,0,0,0,0,0,1,0,0,0,1,
scooby_state_e8b04|21|1 1,0,0,0,0,0,0,0,0,0,0,0,0,0,0,1,
scooby_state_565b8|47|7 0,0,1,0,0,0,0,0,0,0,0,0,0,0,0,1,
scooby_state_12c8910|54|0 1,0,0,0,0,0,0,0,0,0,0,0,0,0,0,1,
scooby_state_12c89e8|15|0 0,0,0,0,0,0,0,0,0,0,0,1,0,0,0,1,
scooby_state_104afe4|47|22 0,0,0,0,0,0,0,0,0,0,0,1,0,0,0,1,
scooby_state_12c887c|62|-1 1,0,0,0,0,0,0,0,0,0,0,0,0,0,0,1,
scooby_state_e3564|49|-1 1,0,0,0,0,0,0,0,0,0,0,0,0,0,0,1,
scooby_state_13af8f4|35|2 1,0,0,0,0,0,0,0,0,0,0,0,0,0,0,1,
scooby_state_e15b4|52|1 1,0,0,0,0,0,0,0,0,0,0,0,0,0,0,1,
scooby_state_1008aac|11|-15 0,0,1,0,0,0,0,0,0,0,0,0,0,0,0,1,
scooby_state_1001988|35|5 0,0,1,0,0,0,0,0,0,0,0,0,0,0,0,1,
scooby_state_e38ac|43|33 1,0,0,0,0,0,0,0,0,0,0,0,0,0,0,1,
scooby_state_11fca48|33|-20 1,0,0,0,0,0,0,0,0,0,0,0,0,0,0,1,
scooby_state_497a4|24|-14 1,0,0,0,0,0,0,0,0,0,0,0,0,0,0,1,
scooby_state_46130|15|3 1,0,0,0,0,0,0,0,0,0,0,0,0,0,0,1,
scooby_state_e1508|25|6 1,0,0,0,0,0,0,0,0,0,0,0,0,0,0,1,
scooby_state_131e764|31|-9 0,0,0,0,0,1,0,0,0,0,0,0,0,0,0,1,
scooby_state_11fca48|40|-21 1,0,0,0,0,0,0,0,0,0,0,0,0,0,0,1,
scooby_state_e5220|48|39 0,0,0,0,0,0,1,0,0,0,0,0,0,0,0,1,
scooby_state_106417c|15|-2 1,0,0,0,0,0,0,0,0,0,0,0,0,0,0,1,
scooby_state_ea500|2|0 0,0,0,0,0,0,1,0,0,0,0,0,0,0,0,1,
scooby_state_ea4e8|51|1 0,0,0,0,0,0,0,0,0,0,0,0,0,1,0,1,
scooby_state_1000d28|5|-14 1,0,0,0,0,0,0,0,0,0,0,0,0,0,0,1,
scooby_state_e35ec|17|-1 0,0,0,1,0,0,0,0,0,0,0,0,0,0,0,1,
scooby_state_d1f38|25|1 1,0,0,0,0,0,0,0,0,0,0,0,0,0,0,1,
scooby_state_3c058|49|13 0,0,0,0,0,0,0,0,0,0,0,1,0,0,0,1,
scooby_state_e09e8|40|-11 1,0,0,0,0,0,0,0,0,0,0,0,0,0,0,1,
scooby_state_12ca0a0|48|22 1,0,0,0,0,0,0,0,0,0,0,0,0,0,0,1,
scooby_state_131fc4c|35|7 1,0,0,0,0,0,0,0,0,0,0,0,0,0,0,1,
scooby_state_4945c|41|26 0,0,0,0,0,0,0,0,0,0,0,1,0,0,0,1,
scooby_state_1000d28|32|16 0,0,0,1,0,0,0,0,0,0,0,0,0,0,0,1,
scooby_state_11eba1c|24|-16 1,0,0,0,0,0,0,0,0,0,0,0,0,0,0,1,
scooby_state_10008a0|34|-4 1,0,0,0,0,0,0,0,0,0,0,0,0,0,0,1,
scooby_state_ff390ce4|31|0 0,0,0,0,0,0,0,0,0,0,0,0,0,1,0,1,
scooby_state_e18a8|32|8 1,0,0,0,0,0,0,0,0,0,0,0,0,0,0,1,
scooby_state_ff390e40|63|2 1,0,0,0,0,0,0,0,0,0,0,0,0,0,0,1,
scooby_state_12974d8|17|4 0,0,1,0,0,0,0,0,0,0,0,0,0,0,0,1,
scooby_state_1072db0|4|-1 1,0,0,0,0,0,0,0,0,0,0,0,0,0,0,1,
scooby_state_1008aac|22|-18 1,0,0,0,0,0,0,0,0,0,0,0,0,0,0,1,
scooby_state_1001888|37|11 1,0,0,0,0,0,0,0,0,0,0,0,0,0,0,1,
scooby_state_d1b14|59|0 0,0,0,0,1,0,0,0,0,0,0,0,0,0,0,1,
scooby_state_10ccee4|59|1 1,0,0,0,0,0,0,0,0,0,0,0,0,0,0,1,
scooby_state_1008aac|54|-7 1,0,0,0,0,0,0,0,0,0,0,0,0,0,0,1,
scooby_state_ff390804|18|1 1,0,0,0,0,0,0,0,0,0,0,0,0,0,0,1,
scooby_state_12d1ae8|20|-3 0,0,0,0,0,1,0,0,0,0,0,0,0,0,0,1,
scooby_state_1012260|33|3 1,0,0,0,0,0,0,0,0,0,0,0,0,0,0,1,
scooby_state_102250c|27|-1 1,0,0,0,0,0,0,0,0,0,0,0,0,0,0,1,
scooby_state_ff390e18|4|-3 0,0,0,0,0,1,0,0,0,0,0,0,0,0,0,1,
scooby_state_13d7030|3|-1 1,0,0,0,0,0,0,0,0,0,0,0,0,0,0,1,
scooby_state_12ee4bc|18|6 1,0,0,0,0,0,0,0,0,0,0,0,0,0,0,1,
scooby_state_1297f54|37|3 1,0,0,0,0,0,0,0,0,0,0,0,0,0,0,1,
scooby_state_12c98e4|21|0 0,0,1,0,0,0,0,0,0,0,0,0,0,0,0,1,
scooby_state_1000d28|36|-11 0,0,1,0,0,0,0,0,0,0,0,0,0,0,0,1,
scooby_state_1009e9c|19|0 1,0,0,0,0,0,0,0,0,0,0,0,0,0,0,1,
scooby_state_ff390e18|13|-7 0,0,0,0,0,0,0,0,1,0,0,0,0,0,0,1,
scooby_state_1321798|56|0 1,0,0,0,0,0,0,0,0,0,0,0,0,0,0,1,
scooby_state_11fad70|25|0 1,0,0,0,0,0,0,0,0,0,0,0,0,0,0,1,
scooby_state_1008aac|49|16 0,0,1,0,0,0,0,0,0,0,0,0,0,0,0,1,
scooby_state_ff390dc0|19|-2 1,0,0,0,0,0,0,0,0,0,0,0,0,0,0,1,
scooby_state_ff390d24|8|5 1,0,0,0,0,0,0,0,0,0,0,0,0,0,0,1,
scooby_state_56298|35|2 1,0,0,0,0,0,0,0,0,0,0,0,0,0,0,1,
scooby_state_e0b04|13|-4 1,0,0,0,0,0,0,0,0,0,0,0,0,0,0,1,
scooby_state_e141c|25|5 0,0,0,1,0,0,0,0,0,0,0,0,0,0,0,1,
scooby_state_1008aac|61|1 0,0,1,0,0,0,0,0,0,0,0,0,0,0,0,1,
scooby_state_1008aac|25|1 0,0,1,0,0,0,0,0,0,0,0,0,0,0,0,1,
scooby_state_1297f64|40|0 0,0,0,1,0,0,0,0,0,0,0,0,0,0,0,1,
scooby_state_d27cc|18|-30 1,0,0,0,0,0,0,0,0,0,0,0,0,0,0,1,
scooby_state_12c88a4|57|16 0,0,0,0,0,0,1,0,0,0,0,0,0,0,0,1,
scooby_state_12cb8bc|37|1 1,0,0,0,0,0,0,0,0,0,0,0,0,0,0,1,
scooby_state_ff390d24|39|5 0,1,0,0,0,0,0,0,0,0,0,0,0,0,0,1,
scooby_state_12cbd9c|17|1 1,0,0,0,0,0,0,0,0,0,0,0,0,0,0,1,
scooby_state_1297d10|45|1 1,0,0,0,0,0,0,0,0,0,0,0,0,0,0,1,
scooby_state_ff390e58|62|9 1,0,0,0,0,0,0,0,0,0,0,0,0,0,0,1,
scooby_state_8fd58|47|1 0,1,0,0,0,0,0,0,0,0,0,0,0,0,0,1,
scooby_state_1297b88|25|0 0,1,0,0,0,0,0,0,0,0,0,0,0,0,0,1,
scooby_state_1001998|28|6 1,0,0,0,0,0,0,0,0,0,0,0,0,0,0,1,
scooby_state_1008aac|5|-3 0,0,1,0,0,0,0,0,0,0,0,0,0,0,0,1,
scooby_state_101d9c8|34|-2 0,0,1,0,0,0,0,0,0,0,0,0,0,0,0,1,
scooby_state_ff390cf0|27|-3 0,0,0,1,0,0,0,0,0,0,0,0,0,0,0,1,
scooby_state_ff390b4c|36|-2 0,0,0,1,0,0,0,0,0,0,0,0,0,0,0,1,

scooby_action_0_deg_dist 0,7444,0,0,0,0,0,0,0,0,0,0,0,0,0,0,
scooby_action_-6_deg_dist 0,40987,10,0,1,0,0,0,0,0,0,0,0,0,0,0,
scooby_action_4_deg_dist 0,761481,17713,0,8048,0,62695,0,0,0,0,0,0,0,0,0,
scooby_action_1_deg_dist 0,3728177,694085,0,539200,0,255382,0,0,0,0,0,0,0,0,0,
scooby_action_30_deg_dist 0,2391,2,0,0,0,0,0,0,0,0,0,0,0,0,0,
scooby_action_3_deg_dist 0,492856,6154,0,978,0,114,0,0,0,0,0,0,0,0,0,
scooby_action_32_deg_dist 0,2346,2,0,0,0,0,0,0,0,0,0,0,0,0,0,
scooby_action_5_deg_dist 0,264366,5091,0,233,0,0,0,0,0,0,0,0,0,0,0,
scooby_action_10_deg_dist 0,197098,70,0,0,0,0,0,0,0,0,0,0,0,0,0,
scooby_action_23_deg_dist 0,2505,6,0,0,0,0,0,0,0,0,0,0,0,0,0,
scooby_action_-1_deg_dist 0,120591,107,0,24,0,0,0,0,0,0,0,0,0,0,0,
scooby_action_11_deg_dist 0,130543,118,0,91,0,21,0,0,0,0,0,0,0,0,0,
scooby_action_12_deg_dist 0,85873,12,0,0,0,0,0,0,0,0,0,0,0,0,0,
scooby_action_22_deg_dist 0,3196,1,0,0,0,0,0,0,0,0,0,0,0,0,0,
scooby_action_-3_deg_dist 0,25451,6,0,1,0,0,0,0,0,0,0,0,0,0,0,

scooby_track_called 7455470
scooby_track_same_address 727690
scooby_track_evict 6727524

scooby_reward_demand_called 7455470
scooby_reward_demand_pt_not_found 3996626
scooby_reward_demand_pt_found 3458844
scooby_reward_demand_pt_found_total 3458844
scooby_reward_demand_has_reward 96
scooby_reward_train_called 3140662
scooby_reward_assign_reward_called 6727645
scooby_reward_no_pref 7444
scooby_reward_incorrect 3133218
scooby_reward_correct_untimely 3309045
scooby_reward_correct_timely 149703
scooby_reward_out_of_bounds 128235
scooby_reward_tracker_hit 0

scooby_reward_none_low_bw 7444
scooby_reward_none_high_bw 0
scooby_reward_incorrect_low_bw 3133218
scooby_reward_incorrect_high_bw 0
scooby_reward_correct_untimely_low_bw 3309045
scooby_reward_correct_untimely_high_bw 0
scooby_reward_correct_timely_low_bw 149703
scooby_reward_correct_timely_high_bw 0
scooby_reward_out_of_bounds_low_bw 128235
scooby_reward_out_of_bounds_high_bw 0
scooby_reward_tracker_hit_low_bw 0
scooby_reward_tracker_hit_high_bw 0

scooby_reward_1 0,2212390,2375556,87775,69074,0,
scooby_reward_3 0,212515,211565,7255,10200,0,
scooby_reward_4 0,366069,373684,30661,18123,0,
scooby_reward_5 0,123918,116406,5192,4947,0,
scooby_reward_10 0,74698,79615,4754,8261,0,
scooby_reward_11 0,56788,59361,7409,5952,0,
scooby_reward_12 0,33762,38789,4544,5905,0,
scooby_reward_22 0,2189,92,103,776,0,
scooby_reward_23 0,1653,30,13,780,0,
scooby_reward_30 0,1419,33,11,916,0,
scooby_reward_32 0,1352,11,8,968,0,
scooby_reward_-1 0,27022,32684,1398,978,0,
scooby_reward_-3 0,7122,9757,203,251,0,
scooby_reward_-6 0,12321,11462,377,1104,0,
scooby_reward_0 7444,0,0,0,0,0,

scooby_train_called 6727523
scooby_train_compute_reward 3140662

scooby_register_fill_called 826223
scooby_register_fill_set 498115
scooby_register_fill_set_total 498115

scooby_register_prefetch_hit_called 7883905
scooby_register_prefetch_hit_set 6174015
scooby_register_prefetch_hit_set_total 6174015

scooby_pref_issue_scooby 9863998

learning_engine_featurewise.action.called 7455470
learning_engine_featurewise.action.explore 13489
learning_engine_featurewise.action.exploit 7441981
learning_engine_featurewise.action.fallback 5847
learning_engine_featurewise.action.dyn_fallback_saved_bw 0
learning_engine_featurewise.action.dyn_fallback_saved_bw_acc 53908
learning_engine_featurewise.action.index_1_explored 925
learning_engine_featurewise.action.index_1_exploited 5215919
learning_engine_featurewise.action.index_3_explored 905
learning_engine_featurewise.action.index_3_exploited 499197
learning_engine_featurewise.action.index_4_explored 902
learning_engine_featurewise.action.index_4_exploited 849035
learning_engine_featurewise.action.index_5_explored 880
learning_engine_featurewise.action.index_5_exploited 268810
learning_engine_featurewise.action.index_10_explored 937
learning_engine_featurewise.action.index_10_exploited 196231
learning_engine_featurewise.action.index_11_explored 908
learning_engine_featurewise.action.index_11_exploited 129865
learning_engine_featurewise.action.index_12_explored 926
learning_engine_featurewise.action.index_12_exploited 84959
learning_engine_featurewise.action.index_22_explored 902
learning_engine_featurewise.action.index_22_exploited 2295
learning_engine_featurewise.action.index_23_explored 900
learning_engine_featurewise.action.index_23_exploited 1611
learning_engine_featurewise.action.index_30_explored 888
learning_engine_featurewise.action.index_30_exploited 1505
learning_engine_featurewise.action.index_32_explored 847
learning_engine_featurewise.action.index_32_exploited 1501
learning_engine_featurewise.action.index_-1_explored 886
learning_engine_featurewise.action.index_-1_exploited 119836
learning_engine_featurewise.action.index_-3_explored 893
learning_engine_featurewise.action.index_-3_exploited 24565
learning_engine_featurewise.action.index_-6_explored 881
learning_engine_featurewise.action.index_-6_exploited 40117
learning_engine_featurewise.action.index_0_explored 909
learning_engine_featurewise.action.index_0_exploited 6535
learning_engine_featurewise.learn.called 6727523
learning_engine_featurewise.learn.su_skip_PC 0
learning_engine_featurewise.learn.su_skip_PC_Delta 0

learning_engine_featurewise.q_value_histogram.bucket_0 0
learning_engine_featurewise.q_value_histogram.bucket_1 113
learning_engine_featurewise.q_value_histogram.bucket_2 77569
learning_engine_featurewise.q_value_histogram.bucket_3 234930
learning_engine_featurewise.q_value_histogram.bucket_4 1566281
learning_engine_featurewise.q_value_histogram.bucket_5 3780293
learning_engine_featurewise.q_value_histogram.bucket_6 1782795
learning_engine_featurewise.q_value_histogram.bucket_7 0

learning_engine_featurewise.consensus.total 7441981
learning_engine_featurewise.consensus.feature_align_PC 5613942
learning_engine_featurewise.consensus.feature_align_PC_ratio 0.75
learning_engine_featurewise.consensus.feature_align_PC_Delta 5648628
learning_engine_featurewise.consensus.feature_align_PC_Delta_ratio 0.76
learning_engine_featurewise.consensus.feature_align_all 3820702
learning_engine_featurewise.consensus.feature_align_all_ratio 0.51

learning_engine_featurewise.feature_PC_min_weight 1000000.00000000
learning_engine_featurewise.feature_PC_max_weight 0.00000000
learning_engine_featurewise.feature_PC_Delta_min_weight 1000000.00000000
learning_engine_featurewise.feature_PC_Delta_max_weight 0.00000000
unique_pcs 5173
unique_pages 15613
unique_trigger_pcs 2312
total_bitmaps_seen 0
unique_bitmaps_seen 0

scooby_bw_epochs 1784990
scooby_bw_level_0 1730622
scooby_bw_level_1 33713
scooby_bw_level_2 12513
scooby_bw_level_3 8142

scooby_ipc_epochs 0
scooby_ipc_level_0 0
scooby_ipc_level_1 0
scooby_ipc_level_2 0
scooby_ipc_level_3 0

scooby_cache_acc_epochs 112529
scooby_cache_acc_level_0 23919
scooby_cache_acc_level_1 20807
scooby_cache_acc_level_2 19491
scooby_cache_acc_level_3 13548
scooby_cache_acc_level_4 8730
scooby_cache_acc_level_5 9149
scooby_cache_acc_level_6 4268
scooby_cache_acc_level_7 2236
scooby_cache_acc_level_8 1543
scooby_cache_acc_level_9 8838

Channel_0_RQ_row_buffer_hit 230372
Channel_0_RQ_row_buffer_miss 201056
Channel_0_WQ_row_buffer_hit 16178
Channel_0_WQ_row_buffer_miss 77774
Channel_0_WQ_full 0
Channel_0_dbus_congested 262319

avg_congested_cycle 10

DRAM_bw_pochs 1784990
DRAM_bw_level_0 1730622
DRAM_bw_level_1 33713
DRAM_bw_level_2 12513
DRAM_bw_level_3 8142
