[VMEM] WARNING: physical memory size is smaller than virtual memory size.
WARNING: option --warmup_instructions is deprecated. Use --warmup-instructions instead.
WARNING: option --simulation_instructions is deprecated. Use --simulation-instructions instead.

*** ChampSim Multicore Out-of-Order Simulator ***
Warmup Instructions: 40000000
Simulation Instructions: 100000000
Number of CPUs: 1
Page size: 4096

Off-chip DRAM Size: 16 GiB Channels: 1 Width: 64-bit Data Rate: 2403 MT/s
[VMEM] WARNING: Out of physical memory, freeing ppages
Heartbeat CPU 0 instructions: 10000002 cycles: 12903225 heartbeat IPC: 0.775 cumulative IPC: 0.775 (Simulation time: 00 hr 07 min 26 sec)
[VMEM] WARNING: Out of physical memory, freeing ppages
[VMEM] WARNING: Out of physical memory, freeing ppages
Heartbeat CPU 0 instructions: 20000004 cycles: 24998775 heartbeat IPC: 0.8268 cumulative IPC: 0.8 (Simulation time: 00 hr 14 min 46 sec)
[VMEM] WARNING: Out of physical memory, freeing ppages
Heartbeat CPU 0 instructions: 30000007 cycles: 36884998 heartbeat IPC: 0.8413 cumulative IPC: 0.8133 (Simulation time: 00 hr 22 min 05 sec)
[VMEM] WARNING: Out of physical memory, freeing ppages
Warmup finished CPU 0 instructions: 40000004 cycles: 54117851 cumulative IPC: 0.7391 (Simulation time: 00 hr 29 min 50 sec)
Warmup complete CPU 0 instructions: 40000004 cycles: 54117851 cumulative IPC: 0.7391 (Simulation time: 00 hr 29 min 50 sec)
Heartbeat CPU 0 instructions: 40000009 cycles: 54118022 heartbeat IPC: 0.5803 cumulative IPC: 0.02924 (Simulation time: 00 hr 29 min 50 sec)
[VMEM] WARNING: Out of physical memory, freeing ppages
Heartbeat CPU 0 instructions: 50000013 cycles: 146684793 heartbeat IPC: 0.108 cumulative IPC: 0.108 (Simulation time: 01 hr 01 min 38 sec)
[VMEM] WARNING: Out of physical memory, freeing ppages
[VMEM] WARNING: Out of physical memory, freeing ppages
Heartbeat CPU 0 instructions: 60000014 cycles: 242871804 heartbeat IPC: 0.104 cumulative IPC: 0.106 (Simulation time: 01 hr 33 min 32 sec)
[VMEM] WARNING: Out of physical memory, freeing ppages
Heartbeat CPU 0 instructions: 70000015 cycles: 325285550 heartbeat IPC: 0.1213 cumulative IPC: 0.1106 (Simulation time: 02 hr 02 min 11 sec)
*** Reached end of trace: (0, "/home/wzz/ChampSim/traces/cloud9_phase5_core2.trace.xz")
[VMEM] WARNING: Out of physical memory, freeing ppages
[VMEM] WARNING: Out of physical memory, freeing ppages
Heartbeat CPU 0 instructions: 80000015 cycles: 406619439 heartbeat IPC: 0.1229 cumulative IPC: 0.1135 (Simulation time: 02 hr 33 min 15 sec)
[VMEM] WARNING: Out of physical memory, freeing ppages
Heartbeat CPU 0 instructions: 90000019 cycles: 492912511 heartbeat IPC: 0.1159 cumulative IPC: 0.1139 (Simulation time: 03 hr 04 min 58 sec)
[VMEM] WARNING: Out of physical memory, freeing ppages
[VMEM] WARNING: Out of physical memory, freeing ppages
Heartbeat CPU 0 instructions: 100000023 cycles: 578557535 heartbeat IPC: 0.1168 cumulative IPC: 0.1144 (Simulation time: 03 hr 36 min 24 sec)
Heartbeat CPU 0 instructions: 110000025 cycles: 645092499 heartbeat IPC: 0.1503 cumulative IPC: 0.1184 (Simulation time: 03 hr 58 min 57 sec)
[VMEM] WARNING: Out of physical memory, freeing ppages
[VMEM] WARNING: Out of physical memory, freeing ppages
Heartbeat CPU 0 instructions: 120000027 cycles: 736183355 heartbeat IPC: 0.1098 cumulative IPC: 0.1173 (Simulation time: 04 hr 26 min 01 sec)
[VMEM] WARNING: Out of physical memory, freeing ppages
Heartbeat CPU 0 instructions: 130000027 cycles: 832271173 heartbeat IPC: 0.1041 cumulative IPC: 0.1157 (Simulation time: 04 hr 53 min 29 sec)
[VMEM] WARNING: Out of physical memory, freeing ppages
[VMEM] WARNING: Out of physical memory, freeing ppages
Simulation finished CPU 0 instructions: 100000000 cycles: 864014357 cumulative IPC: 0.1157 (Simulation time: 05 hr 18 min 54 sec)
Simulation complete CPU 0 instructions: 100000000 cycles: 864014357 cumulative IPC: 0.1157 (Simulation time: 05 hr 18 min 54 sec)

ChampSim completed all CPUs

=== Simulation ===
CPU 0 runs /home/wzz/ChampSim/traces/cloud9_phase5_core2.trace.xz

Region of Interest Statistics

CPU 0 cumulative IPC: 0.1157 instructions: 100000000 cycles: 864014357
CPU 0 Branch Prediction Accuracy: 99.99% MPKI: 0.00059 Average ROB Occupancy at Mispredict: 1170
Branch type MPKI
BRANCH_DIRECT_JUMP: 0
BRANCH_INDIRECT: 0
BRANCH_CONDITIONAL: 0.00059
BRANCH_DIRECT_CALL: 0
BRANCH_INDIRECT_CALL: 0
BRANCH_RETURN: 0

cpu0->cpu0_STLB TOTAL        ACCESS:   33731121 HIT:   15741001 MISS:   17990120 MSHR_MERGE:       2188
cpu0->cpu0_STLB LOAD         ACCESS:   33731121 HIT:   15741001 MISS:   17990120 MSHR_MERGE:       2188
cpu0->cpu0_STLB RFO          ACCESS:          0 HIT:          0 MISS:          0 MSHR_MERGE:          0
cpu0->cpu0_STLB PREFETCH     ACCESS:          0 HIT:          0 MISS:          0 MSHR_MERGE:          0
cpu0->cpu0_STLB WRITE        ACCESS:          0 HIT:          0 MISS:          0 MSHR_MERGE:          0
cpu0->cpu0_STLB TRANSLATION  ACCESS:          0 HIT:          0 MISS:          0 MSHR_MERGE:          0
cpu0->cpu0_STLB PREFETCH REQUESTED:          0 ISSUED:          0 USEFUL:          0 USELESS:          0
cpu0->cpu0_STLB AVERAGE MISS LATENCY: 301.2 cycles
cpu0->cpu0_L2C TOTAL        ACCESS:   94209275 HIT:   34650841 MISS:   59558434 MSHR_MERGE:       1321
cpu0->cpu0_L2C LOAD         ACCESS:   28874889 HIT:    9715903 MISS:   19158986 MSHR_MERGE:       1321
cpu0->cpu0_L2C RFO          ACCESS:    3064096 HIT:    2751119 MISS:     312977 MSHR_MERGE:          0
cpu0->cpu0_L2C PREFETCH     ACCESS:          0 HIT:          0 MISS:          0 MSHR_MERGE:          0
cpu0->cpu0_L2C WRITE        ACCESS:    3705859 HIT:    3705776 MISS:         83 MSHR_MERGE:          0
cpu0->cpu0_L2C TRANSLATION  ACCESS:   58564431 HIT:   18478043 MISS:   40086388 MSHR_MERGE:          0
cpu0->cpu0_L2C PREFETCH REQUESTED:          0 ISSUED:          0 USEFUL:          0 USELESS:          0
cpu0->cpu0_L2C AVERAGE MISS LATENCY: 108 cycles
cpu0->cpu0_L1I TOTAL        ACCESS:   57184227 HIT:   56732943 MISS:     451284 MSHR_MERGE:     231920
cpu0->cpu0_L1I LOAD         ACCESS:   57184227 HIT:   56732943 MISS:     451284 MSHR_MERGE:     231920
cpu0->cpu0_L1I RFO          ACCESS:          0 HIT:          0 MISS:          0 MSHR_MERGE:          0
cpu0->cpu0_L1I PREFETCH     ACCESS:          0 HIT:          0 MISS:          0 MSHR_MERGE:          0
cpu0->cpu0_L1I WRITE        ACCESS:          0 HIT:          0 MISS:          0 MSHR_MERGE:          0
cpu0->cpu0_L1I TRANSLATION  ACCESS:          0 HIT:          0 MISS:          0 MSHR_MERGE:          0
cpu0->cpu0_L1I PREFETCH REQUESTED:          0 ISSUED:          0 USEFUL:          0 USELESS:          0
cpu0->cpu0_L1I AVERAGE MISS LATENCY: 39.56 cycles
cpu0->cpu0_L1D TOTAL        ACCESS:  151263963 HIT:   54064760 MISS:   97199203 MSHR_MERGE:    6884613
cpu0->cpu0_L1D LOAD         ACCESS:   45398023 HIT:   16000528 MISS:   29397495 MSHR_MERGE:     741260
cpu0->cpu0_L1D RFO          ACCESS:          0 HIT:          0 MISS:          0 MSHR_MERGE:          0
cpu0->cpu0_L1D PREFETCH     ACCESS:          0 HIT:          0 MISS:          0 MSHR_MERGE:          0
cpu0->cpu0_L1D WRITE        ACCESS:   31716321 HIT:   25028278 MISS:    6688043 MSHR_MERGE:    3594121
cpu0->cpu0_L1D TRANSLATION  ACCESS:   74149619 HIT:   13035954 MISS:   61113665 MSHR_MERGE:    2549232
cpu0->cpu0_L1D PREFETCH REQUESTED:          0 ISSUED:          0 USEFUL:          0 USELESS:          0
cpu0->cpu0_L1D AVERAGE MISS LATENCY: 80.86 cycles
cpu0->cpu0_ITLB TOTAL        ACCESS:   51310034 HIT:   50958620 MISS:     351414 MSHR_MERGE:     215339
cpu0->cpu0_ITLB LOAD         ACCESS:   51310034 HIT:   50958620 MISS:     351414 MSHR_MERGE:     215339
cpu0->cpu0_ITLB RFO          ACCESS:          0 HIT:          0 MISS:          0 MSHR_MERGE:          0
cpu0->cpu0_ITLB PREFETCH     ACCESS:          0 HIT:          0 MISS:          0 MSHR_MERGE:          0
cpu0->cpu0_ITLB WRITE        ACCESS:          0 HIT:          0 MISS:          0 MSHR_MERGE:          0
cpu0->cpu0_ITLB TRANSLATION  ACCESS:          0 HIT:          0 MISS:          0 MSHR_MERGE:          0
cpu0->cpu0_ITLB PREFETCH REQUESTED:          0 ISSUED:          0 USEFUL:          0 USELESS:          0
cpu0->cpu0_ITLB AVERAGE MISS LATENCY: 85.46 cycles
cpu0->cpu0_DTLB TOTAL        ACCESS:   71977693 HIT:   35515120 MISS:   36462573 MSHR_MERGE:    2867527
cpu0->cpu0_DTLB LOAD         ACCESS:   71977693 HIT:   35515120 MISS:   36462573 MSHR_MERGE:    2867527
cpu0->cpu0_DTLB RFO          ACCESS:          0 HIT:          0 MISS:          0 MSHR_MERGE:          0
cpu0->cpu0_DTLB PREFETCH     ACCESS:          0 HIT:          0 MISS:          0 MSHR_MERGE:          0
cpu0->cpu0_DTLB WRITE        ACCESS:          0 HIT:          0 MISS:          0 MSHR_MERGE:          0
cpu0->cpu0_DTLB TRANSLATION  ACCESS:          0 HIT:          0 MISS:          0 MSHR_MERGE:          0
cpu0->cpu0_DTLB PREFETCH REQUESTED:          0 ISSUED:          0 USEFUL:          0 USELESS:          0
cpu0->cpu0_DTLB AVERAGE MISS LATENCY: 166.5 cycles
cpu0->LLC TOTAL        ACCESS:   60178593 HIT:   35847203 MISS:   24331390 MSHR_MERGE:          0
cpu0->LLC LOAD         ACCESS:   19157606 HIT:   10782039 MISS:    8375567 MSHR_MERGE:          0
cpu0->LLC RFO          ACCESS:     312785 HIT:     169075 MISS:     143710 MSHR_MERGE:          0
cpu0->LLC PREFETCH     ACCESS:          0 HIT:          0 MISS:          0 MSHR_MERGE:          0
cpu0->LLC WRITE        ACCESS:     621814 HIT:     610970 MISS:      10844 MSHR_MERGE:          0
cpu0->LLC TRANSLATION  ACCESS:   40086388 HIT:   24285119 MISS:   15801269 MSHR_MERGE:          0
cpu0->LLC PREFETCH REQUESTED:          0 ISSUED:          0 USEFUL:          0 USELESS:          0
cpu0->LLC AVERAGE MISS LATENCY: 204.6 cycles

DRAM Statistics

Channel 0 RQ ROW_BUFFER_HIT:      24584
  ROW_BUFFER_MISS:   24236780
  AVG DBUS CONGESTED CYCLE: 7.513
Channel 0 WQ ROW_BUFFER_HIT:      54013
  ROW_BUFFER_MISS:     259765
  FULL:          0
Channel 0 REFRESHES ISSUED:      71990
